Molecule-1
  DSViewer          3D                             0

 34 37  0  0  0  0  0  0  0  0999 V2000
   -9.2427    0.1258    0.0097 C   0  0  0  0  0  0  0  0  0  0
   -8.0980   -0.8162    0.3466 C   0  0  0  0  0  0  0  0  0  0
   -6.8350   -0.0519    0.0494 C   0  0  0  0  0  0  0  0  0  0
   -5.5458   -0.7602    0.3101 C   0  0  0  0  0  0  0  0  0  0
   -4.3829   -0.1395    0.0687 N   0  0  0  0  0  0  0  0  0  0
   -3.2095   -0.9106   -0.0050 C   0  0  0  0  0  0  0  0  0  0
   -1.8920   -0.1382   -0.0198 C   0  0  0  0  0  0  0  0  0  0
   -1.7159    1.3930   -0.2205 C   0  0  0  0  0  0  0  0  0  0
   -3.0951    2.0157   -0.0044 C   0  0  0  0  0  0  0  0  0  0
   -4.4013    1.2691   -0.0049 C   0  0  0  0  0  0  0  0  0  0
   -0.4659    2.2301   -0.0813 C   0  0  0  0  0  0  0  0  0  0
    0.7967    1.5629   -0.0243 C   0  0  0  0  0  0  0  0  0  0
    2.0476    2.2892   -0.0179 C   0  0  0  0  0  0  0  0  0  0
    2.0352    3.8012   -0.0406 C   0  0  0  0  0  0  0  0  0  0
    0.6866    4.4131   -0.0230 C   0  0  0  0  0  0  0  0  0  0
   -0.5524    3.6526   -0.0331 C   0  0  0  0  0  0  0  0  0  0
    3.1281    1.2910   -0.0064 C   0  0  0  0  0  0  0  0  0  0
    2.9373   -0.1527   -0.0015 C   0  0  0  0  0  0  0  0  0  0
    3.9849   -1.1838    0.0000 C   0  0  0  0  0  0  0  0  0  0
    5.4163   -0.7479   -0.0000 C   0  0  0  0  0  0  0  0  0  0
    5.7060    0.7139   -0.0001 C   0  0  0  0  0  0  0  0  0  0
    4.5485    1.7000   -0.0006 C   0  0  0  0  0  0  0  0  0  0
    3.2004    4.6752   -0.0711 N   0  0  0  0  0  0  0  0  0  0
    3.3190    6.0967   -0.2330 C   0  0  0  0  0  0  0  0  0  0
    4.3944    7.0712    0.0001 C   0  0  0  0  0  0  0  0  0  0
    5.6435    6.6090    0.2038 N   0  0  0  0  0  0  0  0  0  0
    6.5269    7.6282    0.2376 C   0  0  0  0  0  0  0  0  0  0
    5.8803    8.8497    0.0567 C   0  0  0  0  0  0  0  0  0  0
    4.5416    8.4831   -0.0095 N   0  0  0  0  0  0  0  0  0  0
    7.8052    7.4670    0.3902 C   0  0  0  0  0  0  0  0  0  0
    8.9371    7.3274    0.5250 N   0  0  0  0  0  0  0  0  0  0
    2.3030    6.7165   -0.8713 O   0  0  0  0  0  0  0  0  0  0
   -5.5273   -1.9706    0.9333 O   0  0  0  0  0  0  0  0  0  0
   -8.5099   -2.2412    0.0283 C   0  0  0  0  0  0  0  0  0  0
  1  2  1  0  0  0
  2  3  1  0  0  0
  3  4  1  0  0  0
  4  5  1  0  0  0
  6  7  1  0  0  0
  7  8  1  0  0  0
  8  9  1  0  0  0
  9 10  1  0  0  0
  5  6  1  0  0  0
  5 10  1  0  0  0
  8 11  1  0  0  0
 12 13  1  0  0  0
 13 14  2  0  0  0
 14 15  1  0  0  0
 15 16  2  0  0  0
 11 12  2  0  0  0
 11 16  1  0  0  0
 13 17  1  0  0  0
 18 19  1  0  0  0
 19 20  1  0  0  0
 20 21  1  0  0  0
 21 22  1  0  0  0
 17 18  2  0  0  0
 17 22  1  0  0  0
 14 23  1  0  0  0
 23 24  1  0  0  0
 24 25  1  0  0  0
 26 27  1  0  0  0
 27 28  2  0  0  0
 28 29  1  0  0  0
 25 26  2  0  0  0
 25 29  1  0  0  0
 27 30  1  0  0  0
 30 31  3  0  0  0
 24 32  2  0  0  0
  4 33  2  0  0  0
  2 34  1  0  0  0
M  END
> <Final Dreiding Energy>
451.845759

> <Initial Dreiding Energy>
998.367241

$$$$