3038522
  DSViewer          3D                             0

 41 45  0  0  0  0  0  0  0  0999 V2000
   -6.0676    1.6601    0.5152 O   0  0  0  0  0  0  0  0  0  1
    4.3571    1.3796    2.1741 O   0  0  0  0  0  0  0  0  0  2
   -4.0974    1.0459    2.3760 O   0  0  0  0  0  0  0  0  0  3
    9.8344   -1.1541   -0.2877 O   0  0  0  0  0  0  0  0  0  4
   -7.3925   -1.5281    0.1471 N   0  0  0  0  0  0  0  0  0  5
    0.2269    0.9729   -0.2738 N   0  0  0  0  0  0  0  0  0  6
    2.4408    0.3767    1.3658 N   0  0  0  0  0  0  0  0  0  7
   -0.4631    1.4757   -2.4505 N   0  0  0  0  0  0  0  0  0  8
    4.5067   -0.7558    1.2801 N   0  0  0  0  0  0  0  0  0  9
   -2.7898    1.8759   -2.9330 N   0  0  0  0  0  0  0  0  0 10
   -6.5380   -2.4621    0.8937 C   0  0  0  0  0  0  0  0  0 11
   -8.4822   -2.2370   -0.5383 C   0  0  0  0  0  0  0  0  0 12
   -5.9268   -3.5127   -0.0346 C   0  0  0  0  0  0  0  0  0 13
   -7.9344   -3.2803   -1.5135 C   0  0  0  0  0  0  0  0  0 14
   -7.0043   -4.2620   -0.8102 C   0  0  0  0  0  0  0  0  0 15
   -7.9313   -0.5026    1.0401 C   0  0  0  0  0  0  0  0  0 16
   -8.2752    0.7576    0.2525 C   0  0  0  0  0  0  0  0  0 17
    1.0187   -0.2424   -0.5339 C   0  0  0  0  0  0  0  0  0 18
    0.9178    2.0609    0.4348 C   0  0  0  0  0  0  0  0  0 19
    1.6848   -0.7209    0.7537 C   0  0  0  0  0  0  0  0  0 20
    1.6083    1.5323    1.6928 C   0  0  0  0  0  0  0  0  0 21
   -7.0532    1.3228   -0.4588 C   0  0  0  0  0  0  0  0  0 22
   -0.8091    1.2788   -1.1642 C   0  0  0  0  0  0  0  0  0 23
   -2.1150    1.3628   -0.6894 C   0  0  0  0  0  0  0  0  0 24
    3.8197    0.3980    1.6549 C   0  0  0  0  0  0  0  0  0 25
   -3.1007    1.6733   -1.6405 C   0  0  0  0  0  0  0  0  0 26
   -4.7628    1.5585    0.1364 C   0  0  0  0  0  0  0  0  0 27
   -2.4518    1.1528    0.6593 C   0  0  0  0  0  0  0  0  0 28
   -4.4198    1.7660   -1.2029 C   0  0  0  0  0  0  0  0  0 29
   -3.7780    1.2517    1.0688 C   0  0  0  0  0  0  0  0  0 30
   -1.4881    1.7666   -3.2676 C   0  0  0  0  0  0  0  0  0 31
    5.8632   -0.8577    0.8825 C   0  0  0  0  0  0  0  0  0 32
    6.6821    0.2714    0.9015 C   0  0  0  0  0  0  0  0  0 33
    6.3792   -2.0865    0.4708 C   0  0  0  0  0  0  0  0  0 34
   -3.0255    0.7359    3.2650 C   0  0  0  0  0  0  0  0  0 35
    8.0168    0.1716    0.5090 C   0  0  0  0  0  0  0  0  0 36
    7.7138   -2.1863    0.0782 C   0  0  0  0  0  0  0  0  0 37
    8.5326   -1.0572    0.0974 C   0  0  0  0  0  0  0  0  0 38
   10.2457   -0.3528   -1.3943 C   0  0  0  0  0  0  0  0  0 39
   11.3318    0.6098   -0.9390 C   0  0  0  0  0  0  0  0  0 40
   10.7260   -1.2591   -2.5177 C   0  0  0  0  0  0  0  0  0 41
  1 22  1  0  0  0
  1 27  1  0  0  0
  2 25  2  0  0  0
  3 30  1  0  0  0
  3 35  1  0  0  0
  4 38  1  0  0  0
  4 39  1  0  0  0
  5 11  1  0  0  0
  5 12  1  0  0  0
  5 16  1  0  0  0
  6 18  1  0  0  0
  6 19  1  0  0  0
  6 23  1  0  0  0
  7 20  1  0  0  0
  7 21  1  0  0  0
  7 25  1  0  0  0
  8 23  2  0  0  0
  8 31  1  0  0  0
  9 25  1  0  0  0
  9 32  1  0  0  0
 10 26  1  0  0  0
 10 31  2  0  0  0
 11 13  1  0  0  0
 12 14  1  0  0  0
 13 15  1  0  0  0
 14 15  1  0  0  0
 16 17  1  0  0  0
 17 22  1  0  0  0
 18 20  1  0  0  0
 19 21  1  0  0  0
 23 24  1  0  0  0
 24 26  1  0  0  0
 24 28  2  0  0  0
 26 29  2  0  0  0
 27 29  1  0  0  0
 27 30  2  0  0  0
 28 30  1  0  0  0
 32 33  2  0  0  0
 32 34  1  0  0  0
 33 36  1  0  0  0
 34 37  2  0  0  0
 36 38  2  0  0  0
 37 38  1  0  0  0
 39 40  1  0  0  0
 39 41  1  0  0  0
M  END
> <PUBCHEM_SHAPE_VOLUME>
439.3

> <PUBCHEM_CACTVS_TAUTO_COUNT>
2

> <PUBCHEM_CONFORMER_RMSD>
1.4

> <PUBCHEM_COORDINATE_TYPE>
2
5
255

> <PUBCHEM_SHAPE_SELFOVERLAP>
1674.492

> <PUBCHEM_FEATURE_SELFOVERLAP>
71.22

> <PUBCHEM_HEAVY_ATOM_COUNT>
41

> <PUBCHEM_COMPONENT_COUNT>
1

> <PUBCHEM_BOND_UDEF_STEREO_COUNT>
0

> <PUBCHEM_MMFF94_PARTIAL_CHARGES>
42
1 -0.36
10 -0.62
11 0.27
12 0.27
16 0.27
18 0.37
19 0.37
2 -0.57
20 0.3
21 0.3
22 0.28
23 0.41
25 0.69
26 0.31
27 0.08
28 -0.15
29 -0.15
3 -0.36
30 0.08
31 0.47
32 0.12
33 -0.15
34 -0.15
35 0.28
36 -0.15
37 -0.15
38 0.08
39 0.28
4 -0.36
5 -0.81
6 -0.84
66 0.15
67 0.15
68 0.37
69 0.15
7 -0.66
70 0.15
71 0.15
75 0.15
76 0.15
8 -0.62
9 -0.55

> <PUBCHEM_PHARMACOPHORE_FEATURES>
14
1 1 acceptor
1 2 acceptor
1 3 acceptor
1 4 acceptor
1 5 cation
1 9 donor
3 39 40 41 hydrophobe
3 6 8 23 cation
3 8 10 31 cation
6 24 26 27 28 29 30 rings
6 32 33 34 36 37 38 rings
6 5 11 12 13 14 15 rings
6 6 7 18 19 20 21 rings
6 8 10 23 24 26 31 rings

> <PUBCHEM_MMFF94_ENERGY>
142.2452

> <PUBCHEM_ISOTOPIC_ATOM_COUNT>
0

> <PUBCHEM_BOND_DEF_STEREO_COUNT>
0

> <PUBCHEM_EFFECTIVE_ROTOR_COUNT>
14.4

> <PUBCHEM_ATOM_UDEF_STEREO_COUNT>
0

> <PUBCHEM_SHAPE_MULTIPOLES>
790.4
37.22
3.36
2.51
64.25
28.79
11.02
-14.83
-39.19
-21.8
15.83
0.72
78.85
59.93

> <PUBCHEM_CONFORMER_ID>
002E5D3A00000008

> <PUBCHEM_CONFORMER_DIVERSEORDER>
8
12
19
21
23
9
14
13
22
5
18
7
17
4
16
1
24
11
6
3
20
15
10
2

> <PUBCHEM_SHAPE_FINGERPRINT>
10372059 70 9007067850317532126
11135609 99 18334016056431541615
11456790 92 5328738599592150178
11621639 183 17024296626230626985
12013929 2 17967820496471877249
13383668 251 18270414784416336896
13947947 19 16988552498688706675
14415361 349 17917712413381143403
14856354 85 18333731346833169756
15183329 4 17096100190153534712
15776043 110 16805607010017552682
16989713 51 18131082536803914319
16993089 31 18260829327928420350
17324776 126 17247260804017806951
20105231 36 17894351094906367030
21223535 225 9223231854071797651
21781055 127 5184073682073421736
21867018 265 18343582927994562307
23389318 12 16845576413650022786
397638 5 10015863185381551246
4339292 15 17988936573911201322
4625314 4 18341620308840762461
4756326 101 12031785847638821390
5028188 123 18413952789085048596
5381727 24 5256110329704001261
6058803 2 15192223341059270952
9962374 69 17989487403545989084

> <PUBCHEM_ATOM_DEF_STEREO_COUNT>
0

> <PUBCHEM_COMPOUND_CID>
3038522

$$$$