10138259
  DSViewer          3D                             0

 32 35  0  0  0  0  0  0  0  0999 V2000
    7.8356    0.0948   -2.6796 F   0  0  0  0  0  0  0  0  0  1
   -8.0509    1.1098   -0.6922 O   0  0  0  0  0  0  0  0  0  2
   -3.4299   -3.2909   -0.4967 O   0  0  0  0  0  0  0  0  0  3
   -3.1337    0.9979    0.6479 O   0  0  0  0  0  0  0  0  0  4
    2.5376   -0.1200    2.1597 O   0  0  0  0  0  0  0  0  0  5
   -5.5465   -0.2368   -0.5650 N   0  0  0  0  0  0  0  0  0  6
   -2.3007   -1.1188    1.0234 N   0  0  0  0  0  0  0  0  0  7
    0.9686    2.0055    0.2485 N   0  0  0  0  0  0  0  0  0  8
    4.8470   -0.5217    1.8675 N   0  0  0  0  0  0  0  0  0  9
   -4.5933   -1.2462   -1.0219 C   0  0  0  0  0  0  0  0  0 10
   -5.8532    0.7158   -1.6410 C   0  0  0  0  0  0  0  0  0 11
   -6.7834   -0.8675   -0.0833 C   0  0  0  0  0  0  0  0  0 12
   -4.2721   -2.2808    0.0628 C   0  0  0  0  0  0  0  0  0 13
   -6.8580    1.7515   -1.1444 C   0  0  0  0  0  0  0  0  0 14
   -7.7670    0.2051    0.3757 C   0  0  0  0  0  0  0  0  0 15
   -3.5814   -1.7247    1.3097 C   0  0  0  0  0  0  0  0  0 16
   -0.8095    0.6852    0.4123 C   0  0  0  0  0  0  0  0  0 17
    0.2556   -0.0591   -0.1525 C   0  0  0  0  0  0  0  0  0 18
    1.3145    0.7852   -0.2326 C   0  0  0  0  0  0  0  0  0 19
   -0.3409    1.9584    0.6500 C   0  0  0  0  0  0  0  0  0 20
   -2.1436    0.2394    0.7011 C   0  0  0  0  0  0  0  0  0 21
    2.6599    0.6341   -0.7063 C   0  0  0  0  0  0  0  0  0 22
    3.6849    0.2176    0.0395 C   0  0  0  0  0  0  0  0  0 23
    5.0783    0.0341   -0.3520 C   0  0  0  0  0  0  0  0  0 24
    0.2087   -1.4768   -0.5689 C   0  0  0  0  0  0  0  0  0 25
   -1.0024    3.1477    1.2220 C   0  0  0  0  0  0  0  0  0 26
    5.7393   -0.4156    0.7948 C   0  0  0  0  0  0  0  0  0 27
    3.5530   -0.1494    1.4894 C   0  0  0  0  0  0  0  0  0 28
    5.7653    0.2140   -1.5375 C   0  0  0  0  0  0  0  0  0 29
    7.0908   -0.6998    0.8059 C   0  0  0  0  0  0  0  0  0 30
    7.1357   -0.0677   -1.5486 C   0  0  0  0  0  0  0  0  0 31
    7.7919   -0.5201   -0.3881 C   0  0  0  0  0  0  0  0  0 32
  1 31  1  0  0  0
  2 14  1  0  0  0
  2 15  1  0  0  0
  3 13  1  0  0  0
  4 21  2  0  0  0
  5 28  2  0  0  0
  6 10  1  0  0  0
  6 11  1  0  0  0
  6 12  1  0  0  0
  7 16  1  0  0  0
  7 21  1  0  0  0
  8 19  1  0  0  0
  8 20  1  0  0  0
  9 27  1  0  0  0
  9 28  1  0  0  0
 10 13  1  0  0  0
 11 14  1  0  0  0
 12 15  1  0  0  0
 13 16  1  0  0  0
 17 18  1  0  0  0
 17 20  2  0  0  0
 17 21  1  0  0  0
 18 19  2  0  0  0
 18 25  1  0  0  0
 19 22  1  0  0  0
 20 26  1  0  0  0
 22 23  2  0  0  0
 23 24  1  0  0  0
 23 28  1  0  0  0
 24 27  2  0  0  0
 24 29  1  0  0  0
 27 30  1  0  0  0
 29 31  2  0  0  0
 30 32  2  0  0  0
 31 32  1  0  0  0
M  END
> <PUBCHEM_CACTVS_TAUTO_COUNT>
6

> <PUBCHEM_COORDINATE_TYPE>
2
5
255

> <PUBCHEM_CONFORMER_RMSD>
1

> <PUBCHEM_SHAPE_SELFOVERLAP>
1316.084

> <PUBCHEM_PHARMACOPHORE_FEATURES>
14
1 2 acceptor
1 3 acceptor
1 3 donor
1 4 acceptor
1 5 acceptor
1 6 cation
1 7 donor
1 8 cation
1 8 donor
1 9 donor
5 8 17 18 19 20 rings
5 9 23 24 27 28 rings
6 2 6 11 12 14 15 rings
6 24 27 29 30 31 32 rings

> <PUBCHEM_HEAVY_ATOM_COUNT>
32

> <PUBCHEM_FEATURE_SELFOVERLAP>
71.131

> <PUBCHEM_COMPONENT_COUNT>
1

> <PUBCHEM_BOND_UDEF_STEREO_COUNT>
0

> <PUBCHEM_MMFF94_ENERGY>
76.3173

> <PUBCHEM_ISOTOPIC_ATOM_COUNT>
0

> <PUBCHEM_BOND_DEF_STEREO_COUNT>
1

> <PUBCHEM_COMPOUND_CID>
10138259

> <PUBCHEM_EFFECTIVE_ROTOR_COUNT>
8.4

> <PUBCHEM_CONFORMER_DIVERSEORDER>
4
55
81
88
54
73
34
89
7
47
79
94
66
58
96
90
11
75
62
93
95
19
86
29
21
33
67
65
57
15
20
31
80
83
37
36
85
87
74
38
22
78
52
60
40
16
77
1
97
2
92
68
84
24
61
14
41
44
64
35
69
91
28
72
42
49
76
71
30
39
70
56
27
51
53
8
46
45
43
13
17
50
6
26
10
63
23
5
25
12
32
82
18
9
3
59
48

> <PUBCHEM_SHAPE_MULTIPOLES>
607.87
23.85
2.16
1.65
0.13
-2.12
-9.07
13.09
6.29
1.55
-18.52
0.83
9.96
-5.44

> <PUBCHEM_ATOM_UDEF_STEREO_COUNT>
0

> <PUBCHEM_CONFORMER_ID>
009AB29300000004

> <PUBCHEM_SHAPE_VOLUME>
336.3

> <PUBCHEM_MMFF94_PARTIAL_CHARGES>
40
1 -0.19
10 0.27
11 0.27
12 0.27
13 0.28
14 0.28
15 0.28
16 0.3
17 -0.09
18 -0.18
19 -0.2
2 -0.56
20 -0.33
21 0.72
22 -0.11
23 -0.01
24 0.03
25 0.18
26 0.18
27 0.12
28 0.62
29 -0.15
3 -0.68
30 -0.15
31 0.19
32 -0.15
4 -0.57
46 0.37
47 0.27
48 0.4
49 0.15
5 -0.57
56 0.37
57 0.15
58 0.15
59 0.15
6 -0.81
7 -0.73
8 0.03
9 -0.55

> <PUBCHEM_SHAPE_FINGERPRINT>
10 15 8790881882663964964
10299344 5 17489872639377277167
10369192 42 14045743729540389587
10883706 142 13110965306135647720
11724838 91 5833989464675080352
11796584 16 18202282476658506042
12082328 90 16917064443458649851
12236239 1 18059851771462921880
12539747 91 17458352952824656608
12788726 201 18341902943110133377
13617811 41 18408879655746731564
13673619 4 17385437727037603560
13782708 43 17313096459031383838
14117953 113 18186803582623097341
14251764 18 17632861919241153559
14294032 229 18194959867205766265
14856354 85 17917713475102988231
14930077 153 16917068880191704509
15183329 4 17274834540542012647
15276724 80 16630536158239938567
15301273 46 17530683212560144264
15419008 47 17676776439187623929
15439362 3 17057788622117036700
16087824 20 18263643026373304361
16992727 255 17988083408643948949
21150785 3 17418093225949569468
21315759 40 5184345222336985002
21424621 283 12967141535400269086
23559900 14 18189905223120643617
249057 3 18411421696465093245
3004659 81 18343585109769097424
3009799 131 18334860519568038105
335352 9 18410014321707874103
4073 2 15482662459987263632
4098825 35 16630805491544471857
4339292 15 17822004363975689990
437815 12 17458346325098976240
504579 68 18201712964743577484
5265222 85 18059855013356453127
5758199 1 11959734889082986813
6081469 158 16370727041449518585
6328613 192 17203610384749384397
7226269 152 18411987975186941473
9689198 14 14692577645505803863

> <PUBCHEM_ATOM_DEF_STEREO_COUNT>
1

$$$$