3025986
  DSViewer          3D                             0

 25 27  0  0  0  0  0  0  0  0999 V2000
    0.6724    1.9934   -1.3652 S   0  0  0  0  0  0  0  0  0  1
    3.4352    2.8645   -0.4285 S   0  0  0  0  0  0  0  0  0  2
   -3.0292    1.2332    1.3460 O   0  0  0  0  0  0  0  0  0  3
    2.9225   -0.3750    0.5823 O   0  0  0  0  0  0  0  0  0  4
   -5.0091   -1.9358    0.0310 N   0  0  0  0  0  0  0  0  0  5
   -1.7723    1.3823   -0.6432 N   0  0  0  0  0  0  0  0  0  6
    4.6372   -0.4413   -0.8910 N   0  0  0  0  0  0  0  0  0  7
   -0.1951    2.0015    1.0700 N   0  0  0  0  0  0  0  0  0  8
   -4.0616    0.7327   -0.7325 C   0  0  0  0  0  0  0  0  0  9
   -3.7230   -0.5223   -1.5396 C   0  0  0  0  0  0  0  0  0 10
   -5.3185    0.5170    0.1130 C   0  0  0  0  0  0  0  0  0 11
   -3.7392   -1.7868   -0.6790 C   0  0  0  0  0  0  0  0  0 12
   -5.2677   -0.7912    0.9039 C   0  0  0  0  0  0  0  0  0 13
   -2.9013    1.1442    0.1295 C   0  0  0  0  0  0  0  0  0 14
    1.8137   -2.5042    0.3208 C   0  0  0  0  0  0  0  0  0 15
    2.8843   -1.5764   -0.0584 C   0  0  0  0  0  0  0  0  0 16
    2.2336   -4.0121    0.1581 C   0  0  0  0  0  0  0  0  0 17
    0.5108   -2.3100   -0.5402 C   0  0  0  0  0  0  0  0  0 18
    1.3072   -2.4047    1.8125 C   0  0  0  0  0  0  0  0  0 19
   -0.5215    1.7827   -0.1672 C   0  0  0  0  0  0  0  0  0 20
    3.9262   -1.6124   -0.9514 C   0  0  0  0  0  0  0  0  0 21
    3.9930    0.2187    0.0180 C   0  0  0  0  0  0  0  0  0 22
    4.2974    1.5949    0.5356 C   0  0  0  0  0  0  0  0  0 23
    1.7713    2.4304   -0.1231 C   0  0  0  0  0  0  0  0  0 24
    1.1337    2.3767    1.0987 C   0  0  0  0  0  0  0  0  0 25
  1 20  1  0  0  0
  1 24  1  0  0  0
  2 23  1  0  0  0
  2 24  1  0  0  0
  3 14  2  0  0  0
  4 16  1  0  0  0
  4 22  1  0  0  0
  5 12  1  0  0  0
  5 13  1  0  0  0
  6 14  1  0  0  0
  6 20  1  0  0  0
  7 21  1  0  0  0
  7 22  2  0  0  0
  8 20  2  0  0  0
  8 25  1  0  0  0
  9 10  1  0  0  0
  9 11  1  0  0  0
  9 14  1  0  0  0
 10 12  1  0  0  0
 11 13  1  0  0  0
 15 16  1  0  0  0
 15 17  1  0  0  0
 15 18  1  0  0  0
 15 19  1  0  0  0
 16 21  2  0  0  0
 22 23  1  0  0  0
 24 25  2  0  0  0
M  END
> <PUBCHEM_SHAPE_MULTIPOLES>
490.52
10.96
4.18
1.28
7.24
3.57
-0.17
0.52
-3.72
-2.12
-1.85
-0.59
17.61
2

> <PUBCHEM_SHAPE_VOLUME>
286.8

> <PUBCHEM_ATOM_DEF_STEREO_COUNT>
0

> <PUBCHEM_PHARMACOPHORE_FEATURES>
8
1 3 acceptor
1 5 cation
1 5 donor
1 6 donor
4 15 17 18 19 hydrophobe
5 1 8 20 24 25 rings
5 4 7 16 21 22 rings
6 5 9 10 11 12 13 rings

> <PUBCHEM_CONFORMER_RMSD>
0.8

> <PUBCHEM_SHAPE_FINGERPRINT>
108634 29 18341886343299150826
11578080 2 17559690618645123373
12467345 10 18259702268226945869
12553582 1 18264219165204927047
12596599 1 17896307177008983678
12596602 18 17240479157239124841
12788726 201 17313368038150529681
13167823 11 18334574616580713869
13402501 40 18342455898358021770
13533116 47 18260832579661657617
13583140 156 17895773836629653753
14117953 113 17398958665751795597
14251757 17 18060134353929324339
14787075 74 18335703806511431668
15110567 62 18411697673160848338
15537594 2 18334852827281715239
17138139 8 17753905916970355084
17492 54 17987776576517393500
20645477 70 18272932695929087280
20764821 26 17912913994666925491
20775530 9 18051701236946352126
21033648 29 5112017101463185105
21197605 99 18122340177363685130
21421861 104 18188754163237397409
21623969 137 18270394988763616545
21673915 165 18336267855543756180
235170 7 17632589240157051069
239999 70 18335136501508326932
338550 245 18268991985977416076
3680242 22 18342183275625497602
3737641 26 18264483052106249566
4283 87 18335994094481342143
4340502 62 18263085414494376712
463206 1 18337952264776964843
484989 97 18198605680396143442
6433294 58 18412267271766147091

> <PUBCHEM_CACTVS_TAUTO_COUNT>
3

> <PUBCHEM_COORDINATE_TYPE>
2
5
255

> <PUBCHEM_HEAVY_ATOM_COUNT>
25

> <PUBCHEM_SHAPE_SELFOVERLAP>
1002.503

> <PUBCHEM_FEATURE_SELFOVERLAP>
40.594

> <PUBCHEM_COMPONENT_COUNT>
1

> <PUBCHEM_BOND_UDEF_STEREO_COUNT>
0

> <PUBCHEM_CONFORMER_DIVERSEORDER>
1
154
469
231
431
385
344
181
293
301
253
109
338
285
146
340
229
332
364
50
404
428
479
80
316
460
354
488
276
169
203
30
357
119
398
319
93
5
328
459
303
218
291
180
486
436
13
376
124
151
455
225
435
313
250
149
189
36
461
298
337
355
329
204
266
299
449
224
195
297
15
268
420
101
294
122
140
410
227
374
395
259
85
483
214
352
302
419
159
111
466
405
9
222
430
318
350
255
4
366
381
290
348
457
251
125
362
132
370
320
342
57
380
439
356
107
246
153
346
432
463
367
424
135
315
41
170
210
453
375
269
423
234
472
219
272
233
308
121
213
206
447
161
162
324
271
284
408
208
443
256
349
475
300
35
116
418
279
152
444
275
477
296
446
345
248
39
267
394
309
341
365
277
244
45
217
388
335
314
96
117
19
60
172
6
100
120
200
326
194
440
413
417
445
238
456
392
148
83
368
220
123
386
167
387
358
489
98
391
69
273
288
44
191
378
190
317
193
448
97
458
401
157
91
199
87
434
182
334
426
389
281
396
384
129
192
184
331
336
196
411
390
183
400
38
67
399
372
393
55
485
82
158
160
274
478
422
131
360
377
468
278
103
81
90
371
361
22
198
312
307
262
416
113
247
8
240
178
174
257
347
168
252
237
187
66
412
321
40
465
118
202
480
46
61
471
147
177
437
108
363
51
265
29
139
163
383
42
421
359
286
282
339
207
48
373
54
451
280
126
133
406
261
330
254
304
114
104
292
70
249
450
438
127
464
138
263
197
141
283
415
409
95
150
78
235
441
37
106
105
425
145
94
306
115
209
137
144
221
462
142
14
64
205
323
467
92
68
21
188
295
476
327
403
71
211
79
201
130
128
215
433
232
110
136
369
179
397
484
481
112
264
31
429
134
343
452
73
223
228
353
156
258
482
402
72
86
165
287
102
490
473
333
62
491
322
20
351
454
52
260
47
427
474
305
143
173
34
186
325
382
379
89
164
216
442
241
487
230
155
270
470
99
3
25
23
175
239
310
243
75
88
26
414
28
63
10
311
226
2
176
242
59
58
76
185
17
245
16
18
11
212
77
171
12
33
24
236
74
32
7
407
53
27
166
289
49
84
65
43
56

> <PUBCHEM_MMFF94_ENERGY>
30.1166

> <PUBCHEM_ISOTOPIC_ATOM_COUNT>
0

> <PUBCHEM_BOND_DEF_STEREO_COUNT>
0

> <PUBCHEM_MMFF94_PARTIAL_CHARGES>
24
1 -0.08
12 0.27
13 0.27
14 0.57
15 0.18
16 -0.04
2 -0.29
20 0.44
21 0.08
22 0.3
23 0.41
24 0.1
25 0.08
3 -0.57
35 0.36
36 0.37
4 -0.28
46 0.15
49 0.15
5 -0.9
6 -0.49
7 -0.57
8 -0.57
9 0.06

> <PUBCHEM_EFFECTIVE_ROTOR_COUNT>
8.2

> <PUBCHEM_ATOM_UDEF_STEREO_COUNT>
0

> <PUBCHEM_COMPOUND_CID>
3025986

> <PUBCHEM_CONFORMER_ID>
002E2C4200000001

$$$$