11656518
  DSViewer          3D                             0

 37 41  0  0  0  0  0  0  0  0999 V2000
    8.8838    0.6137    2.4871 F   0  0  0  0  0  0  0  0  0  1
    9.9092    1.1883    0.6644 F   0  0  0  0  0  0  0  0  0  2
    8.7609    2.6643    1.7740 F   0  0  0  0  0  0  0  0  0  3
   -7.7187    4.1661   -0.3473 F   0  0  0  0  0  0  0  0  0  4
   -8.5870    2.3556   -1.1671 F   0  0  0  0  0  0  0  0  0  5
   -8.6761    2.7282    0.9734 F   0  0  0  0  0  0  0  0  0  6
   -1.7142   -2.8707    1.2115 O   0  0  0  0  0  0  0  0  0  7
    1.9945   -0.8143   -2.2194 N   0  0  0  0  0  0  0  0  0  8
    2.5298   -0.7830   -0.0626 N   0  0  0  0  0  0  0  0  0  9
    4.0894    0.0981   -1.6652 N   0  0  0  0  0  0  0  0  0 10
   -6.4816    0.7751    0.3239 N   0  0  0  0  0  0  0  0  0 11
   -5.7106   -1.7986    0.8229 N   0  0  0  0  0  0  0  0  0 12
   -4.3863    1.5107    0.2960 N   0  0  0  0  0  0  0  0  0 13
    0.9248   -1.3735   -1.5686 C   0  0  0  0  0  0  0  0  0 14
    1.2832   -1.3428   -0.2239 C   0  0  0  0  0  0  0  0  0 15
    2.9266   -0.4779   -1.2777 C   0  0  0  0  0  0  0  0  0 16
   -0.2885   -1.8880   -2.0270 C   0  0  0  0  0  0  0  0  0 17
    0.3904   -1.8510    0.7346 C   0  0  0  0  0  0  0  0  0 18
   -0.8337   -2.3726    0.2975 C   0  0  0  0  0  0  0  0  0 19
    2.1021   -0.6229   -3.6494 C   0  0  0  0  0  0  0  0  0 20
   -1.1651   -2.3898   -1.0593 C   0  0  0  0  0  0  0  0  0 21
    5.2530    0.4144   -0.9105 C   0  0  0  0  0  0  0  0  0 22
    5.5163   -0.2759    0.2657 C   0  0  0  0  0  0  0  0  0 23
    6.1110    1.4103   -1.3590 C   0  0  0  0  0  0  0  0  0 24
   -3.0446   -2.5130    1.0815 C   0  0  0  0  0  0  0  0  0 25
    7.5246    1.0333    0.5636 C   0  0  0  0  0  0  0  0  0 26
   -4.7152   -0.8907    0.7103 C   0  0  0  0  0  0  0  0  0 27
    6.6569    0.0348    1.0060 C   0  0  0  0  0  0  0  0  0 28
    7.2517    1.7211   -0.6189 C   0  0  0  0  0  0  0  0  0 29
   -3.3692   -1.1964    0.8311 C   0  0  0  0  0  0  0  0  0 30
   -5.1566    0.4537    0.4477 C   0  0  0  0  0  0  0  0  0 31
   -6.5595    2.1173    0.0789 C   0  0  0  0  0  0  0  0  0 32
   -4.0179   -3.4818    1.2062 C   0  0  0  0  0  0  0  0  0 33
    8.7442    1.3654    1.3551 C   0  0  0  0  0  0  0  0  0 34
   -5.2540    2.5491    0.0667 C   0  0  0  0  0  0  0  0  0 35
   -5.3350   -3.0739    1.0687 C   0  0  0  0  0  0  0  0  0 36
   -7.8387    2.8175   -0.1110 C   0  0  0  0  0  0  0  0  0 37
  1 34  1  0  0  0
  2 34  1  0  0  0
  3 34  1  0  0  0
  4 37  1  0  0  0
  5 37  1  0  0  0
  6 37  1  0  0  0
  7 19  1  0  0  0
  7 25  1  0  0  0
  8 14  1  0  0  0
  8 16  1  0  0  0
  8 20  1  0  0  0
  9 15  1  0  0  0
  9 16  2  0  0  0
 10 16  1  0  0  0
 10 22  1  0  0  0
 11 31  1  0  0  0
 11 32  1  0  0  0
 12 27  2  0  0  0
 12 36  1  0  0  0
 13 31  2  0  0  0
 13 35  1  0  0  0
 14 15  2  0  0  0
 14 17  1  0  0  0
 15 18  1  0  0  0
 17 21  2  0  0  0
 18 19  2  0  0  0
 19 21  1  0  0  0
 22 23  2  0  0  0
 22 24  1  0  0  0
 23 28  1  0  0  0
 24 29  2  0  0  0
 25 30  2  0  0  0
 25 33  1  0  0  0
 26 28  2  0  0  0
 26 29  1  0  0  0
 26 34  1  0  0  0
 27 30  1  0  0  0
 27 31  1  0  0  0
 32 35  2  0  0  0
 32 37  1  0  0  0
 33 36  2  0  0  0
M  END
> <PUBCHEM_COORDINATE_TYPE>
2
5
255

> <PUBCHEM_CONFORMER_RMSD>
1

> <PUBCHEM_ATOM_DEF_STEREO_COUNT>
0

> <PUBCHEM_BOND_UDEF_STEREO_COUNT>
0

> <PUBCHEM_COMPOUND_CID>
11656518

> <PUBCHEM_MMFF94_ENERGY>
88.8819

> <PUBCHEM_ISOTOPIC_ATOM_COUNT>
0

> <PUBCHEM_HEAVY_ATOM_COUNT>
37

> <PUBCHEM_PHARMACOPHORE_FEATURES>
11
1 10 donor
1 11 donor
1 12 acceptor
1 7 acceptor
3 11 13 31 cation
4 8 9 10 16 cation
5 11 13 31 32 35 rings
5 8 9 14 15 16 rings
6 12 25 27 30 33 36 rings
6 14 15 17 18 19 21 rings
6 22 23 24 26 28 29 rings

> <PUBCHEM_BOND_DEF_STEREO_COUNT>
0

> <PUBCHEM_CONFORMER_DIVERSEORDER>
7
25
133
148
35
152
98
172
11
180
86
128
47
140
21
112
193
162
171
136
14
176
118
183
154
83
52
13
179
54
77
137
164
84
23
147
158
166
161
124
120
74
16
71
38
160
127
12
181
184
135
2
131
194
130
30
132
138
141
182
40
31
1
192
66
104
134
94
143
64
68
34
117
87
169
53
102
92
56
39
168
163
106
195
37
155
59
88
67
79
144
125
189
51
173
165
58
42
109
145
20
167
175
95
191
69
29
99
81
149
65
111
142
9
85
18
60
119
174
157
61
96
76
156
116
97
101
15
188
107
6
187
153
82
123
100
3
91
129
22
178
150
185
170
177
121
36
55
139
186
113
5
44
80
24
90
27
159
75
103
93
4
126
146
122
110
50
32
43
73
108
70
63
78
89
26
190
19
49
41
33
115
114
48
17
45
28
10
57
72
62
8
151
105
46

> <PUBCHEM_SHAPE_SELFOVERLAP>
1529.022

> <PUBCHEM_CONFORMER_ID>
00B1DD4600000007

> <PUBCHEM_SHAPE_MULTIPOLES>
682.04
30.22
4.09
2.09
18.09
35.45
13.36
-23.59
0.12
-23.29
25.17
12.93
47.64
81.66

> <PUBCHEM_ATOM_UDEF_STEREO_COUNT>
0

> <PUBCHEM_SHAPE_FINGERPRINT>
10280341 67 18341617074846608693
10533779 1 18270685385237448085
10554248 39 15358240655727555860
10625338 131 18412822465483561152
10625338 86 18334575698790594930
11409948 8 18270945914243504777
11475781 23 18336816572070582478
11720765 8 17325472802332358887
11828042 291 14130153263677203596
12838862 33 18202286940152841621
13911987 19 16950558904867524199
14040221 275 16199602422882472997
14040221 310 18041570131747113143
14767858 380 14273448185206202102
14904525 67 18044937871201253500
15350500 185 17603307051081702756
15350500 55 18259984873228448230
15840311 113 18129660931997785826
16067689 68 17846505807679532546
16664035 7 18192710043334486571
195137 95 18408887343268601680
21033648 29 18261381248142198422
21133410 221 18116164276749267369
23522609 53 16987131861600479830
249057 25 17345460497510983535
2835820 25 18412549808079672008
393628 179 18260552242429768209
3991529 202 17987809639344742562
4330586 98 6627172784876150756
44249763 50 18113892724349072655
4756088 43 18339372967113992573
504843 32 16733547101087763950
5372103 7 17894351102800027429
6058803 2 16555065499827093862
6201320 215 18335702758080326617
6201320 77 13182749172700662754
636775 8 10592050172142729944
999808 66 13326580635785694370

> <PUBCHEM_CACTVS_TAUTO_COUNT>
6

> <PUBCHEM_MMFF94_PARTIAL_CHARGES>
50
1 -0.34
10 -0.58
11 0.03
12 -0.62
13 -0.57
14 -0.15
15 0.23
16 0.27
17 -0.15
18 -0.15
19 0.08
2 -0.34
20 0.26
21 -0.15
22 0.1
23 -0.15
24 -0.15
25 0.08
26 -0.14
27 0.36
28 -0.15
29 -0.15
3 -0.34
30 -0.15
31 0.13
32 -0.33
33 -0.15
34 1.16
35 0.08
36 0.16
37 1.2
38 0.15
39 0.15
4 -0.34
43 0.4
44 0.15
45 0.15
46 0.15
47 0.15
48 0.15
49 0.15
5 -0.34
50 0.27
51 0.15
52 0.15
53 0.15
6 -0.34
7 -0.17
8 0.05
9 -0.57

> <PUBCHEM_SHAPE_VOLUME>
365

> <PUBCHEM_FEATURE_SELFOVERLAP>
55.924

> <PUBCHEM_COMPONENT_COUNT>
1

> <PUBCHEM_EFFECTIVE_ROTOR_COUNT>
7

$$$$