9818231
  DSViewer          3D                             0

 23 25  0  0  0  0  0  0  0  0999 V2000
   -4.0416   -1.2821   -0.8267 O   0  0  0  0  0  0  0  0  0  1
   -2.5779    0.4004   -0.1767 N   0  0  0  0  0  0  0  0  0  2
    0.8199   -1.1042   -0.0586 N   0  0  0  0  0  0  0  0  0  3
    1.6841    0.5494   -1.5474 N   0  0  0  0  0  0  0  0  0  4
    5.3136    0.1274    0.1763 N   0  0  0  0  0  0  0  0  0  5
    4.0117    1.2623   -1.5062 N   0  0  0  0  0  0  0  0  0  6
   -7.2409   -0.6601   -0.2803 N   0  0  0  0  0  0  0  0  0  7
   -0.3745   -0.4933    0.4870 C   0  0  0  0  0  0  0  0  0  8
   -0.0340    0.8581    1.1519 C   0  0  0  0  0  0  0  0  0  9
   -1.3244    1.5819    1.5770 C   0  0  0  0  0  0  0  0  0 10
   -1.3905   -0.3129   -0.6459 C   0  0  0  0  0  0  0  0  0 11
   -2.3043    1.7138    0.4141 C   0  0  0  0  0  0  0  0  0 12
    0.8849    0.6811    2.3639 C   0  0  0  0  0  0  0  0  0 13
    1.8832   -0.3262   -0.5303 C   0  0  0  0  0  0  0  0  0 14
   -3.8397   -0.1732   -0.3252 C   0  0  0  0  0  0  0  0  0 15
    0.8888   -2.5630   -0.1205 C   0  0  0  0  0  0  0  0  0 16
    3.1586   -0.4340    0.0314 C   0  0  0  0  0  0  0  0  0 17
   -5.0118    0.6357    0.1703 C   0  0  0  0  0  0  0  0  0 18
    4.1509    0.3793   -0.5021 C   0  0  0  0  0  0  0  0  0 19
    3.7600   -1.1958    1.0657 C   0  0  0  0  0  0  0  0  0 20
    2.7439    1.2776   -1.9655 C   0  0  0  0  0  0  0  0  0 21
    5.0874   -0.8293    1.1325 C   0  0  0  0  0  0  0  0  0 22
   -6.2476   -0.0929   -0.0845 C   0  0  0  0  0  0  0  0  0 23
  1 15  2  0  0  0
  2 11  1  0  0  0
  2 12  1  0  0  0
  2 15  1  0  0  0
  3  8  1  0  0  0
  3 14  1  0  0  0
  3 16  1  0  0  0
  4 14  2  0  0  0
  4 21  1  0  0  0
  5 19  1  0  0  0
  5 22  1  0  0  0
  6 19  1  0  0  0
  6 21  2  0  0  0
  7 23  3  0  0  0
  8  9  1  0  0  0
  8 11  1  0  0  0
  9 10  1  0  0  0
  9 13  1  0  0  0
 10 12  1  0  0  0
 14 17  1  0  0  0
 15 18  1  0  0  0
 17 19  2  0  0  0
 17 20  1  0  0  0
 18 23  1  0  0  0
 20 22  2  0  0  0
M  END
> <PUBCHEM_ATOM_DEF_STEREO_COUNT>
0

> <PUBCHEM_CACTVS_TAUTO_COUNT>
3

> <PUBCHEM_PHARMACOPHORE_FEATURES>
9
1 1 acceptor
1 5 cation
1 5 donor
1 7 acceptor
3 3 4 14 cation
3 4 6 21 cation
5 5 17 19 20 22 rings
6 2 8 9 10 11 12 rings
6 4 6 14 17 19 21 rings

> <PUBCHEM_SHAPE_VOLUME>
237.8

> <PUBCHEM_SHAPE_FINGERPRINT>
10090160 65 18342460365477827063
11578080 2 18050007697356178752
12166972 35 18412262870015298048
12236239 1 18342176695503270161
12516196 113 15863791686519959209
12592029 89 17846500374092033850
128620 24 17676487276065750612
13134695 92 17418370312060489284
13167372 99 17988925626081917549
13464513 79 17095530586467285185
13533116 47 18202003256861073810
13583140 156 16988265500631752496
14251739 40 18201158870796780314
14294032 229 18047176725398180577
14386348 63 16515401876253293141
14573314 32 14346068763535645323
14863182 85 18186800322458667790
15527383 91 16660369160482341553
17349148 13 18342453776965891874
17492 89 17899414474031583126
1813 80 17313377924964758665
192875 21 18201995543031524012
19377110 9 18337379544015668665
200 152 18060420230920549497
20157964 124 17489583446222906100
20567600 75 13912593996845950817
20691752 17 18192177947608370841
21033650 10 17972288923651704764
21521721 280 18187360974561686233
22149856 69 18115289169226562363
23402539 116 17967542263234736134
23536379 177 17918276472005143525
23557571 272 16950275252073070560
23559900 14 17530674438385031686
314173 85 17022614270001509473
34797466 226 16877657933433511157
351380 180 16917348138516669236
4325135 7 18413671322782480071
4340502 62 18413387648735515115
439807 62 18058163935315985387
495365 180 16558750083919457616
5486654 2 18186802465341094126
621550 34 15285359552606817416
7495541 125 18337953394400823505

> <PUBCHEM_COMPOUND_CID>
9818231

> <PUBCHEM_HEAVY_ATOM_COUNT>
23

> <PUBCHEM_COMPONENT_COUNT>
1

> <PUBCHEM_BOND_UDEF_STEREO_COUNT>
0

> <PUBCHEM_EFFECTIVE_ROTOR_COUNT>
5.2

> <PUBCHEM_MMFF94_PARTIAL_CHARGES>
23
1 -0.57
11 0.3
12 0.3
14 0.41
15 0.57
16 0.37
18 0.26
19 0.11
2 -0.66
20 -0.15
21 0.47
22 -0.3
23 0.36
3 -0.84
4 -0.62
40 0.15
41 0.27
42 0.15
43 0.15
5 0.03
6 -0.57
7 -0.56
8 0.37

> <PUBCHEM_COORDINATE_TYPE>
2
5
255

> <PUBCHEM_SHAPE_SELFOVERLAP>
932.761

> <PUBCHEM_FEATURE_SELFOVERLAP>
45.899

> <PUBCHEM_CONFORMER_DIVERSEORDER>
1
129
164
73
75
34
226
101
234
137
285
182
196
49
108
185
203
27
278
63
218
270
78
96
166
186
181
2
163
104
221
37
260
282
254
162
41
242
228
83
263
255
51
217
20
126
212
156
197
47
125
249
131
14
283
97
157
86
214
154
10
188
89
102
287
152
237
130
265
210
141
165
55
106
145
256
205
243
30
208
235
36
160
276
90
40
224
44
59
248
202
211
84
272
23
284
52
103
67
219
271
99
62
173
178
76
118
79
230
200
167
107
65
153
281
279
116
87
206
39
140
35
233
241
179
268
8
120
43
58
274
261
100
266
117
136
239
132
280
22
231
29
142
257
13
69
229
9
161
193
180
191
245
60
110
24
111
46
148
244
247
91
12
172
277
170
138
6
15
158
45
25
159
213
251
105
275
19
177
16
262
133
72
32
54
50
5
207
187
124
64
82
68
252
33
119
128
227
171
7
238
174
48
192
88
139
113
85
147
57
81
61
122
42
98
286
215
115
93
183
3
143
123
53
194
195
4
240
56
31
155
94
28
77
11
223
127
146
199
250
259
134
189
175
190
209
80
232
71
184
168
198
38
26
253
121
273
149
70
135
216
151
204
112
18
258
17
21
225
176
74
66
109
236
264
114
222
92
267
220
269
150
169
95
246
144
201

> <PUBCHEM_ISOTOPIC_ATOM_COUNT>
0

> <PUBCHEM_BOND_DEF_STEREO_COUNT>
0

> <PUBCHEM_MMFF94_ENERGY>
66.1624

> <PUBCHEM_ATOM_UDEF_STEREO_COUNT>
2

> <PUBCHEM_CONFORMER_ID>
0095D07700000001

> <PUBCHEM_SHAPE_MULTIPOLES>
437.57
12.85
1.64
1.59
13.87
1.72
-0.62
0.1
-15.21
-2.52
-2.5
-3.42
11.07
4.81

> <PUBCHEM_CONFORMER_RMSD>
0.8

$$$$