Molecule-1
  DSViewer          3D                             0

 39 43  0  0  0  0  0  0  0  0999 V2000
   -7.6825    6.8991    0.0091 C   0  0  0  0  0  0  0  0  0  0
   -6.6523    5.9468    0.1041 N   0  0  0  0  0  0  0  0  0  0
   -5.3445    6.3239    0.2283 C   0  0  0  0  0  0  0  0  0  0
   -4.2827    5.6351   -0.4148 C   0  0  0  0  0  0  0  0  0  0
   -4.7033    4.4115   -1.0612 C   0  0  0  0  0  0  0  0  0  0
   -3.4740    3.7547   -1.4083 C   0  0  0  0  0  0  0  0  0  0
   -1.7796    4.0975   -1.0420 C   0  0  0  0  0  0  0  0  0  0
   -1.6446    5.3573   -0.4499 C   0  0  0  0  0  0  0  0  0  0
   -2.8789    6.0968   -0.2536 C   0  0  0  0  0  0  0  0  0  0
   -5.9911    3.6950   -0.8494 N   0  0  0  0  0  0  0  0  0  0
   -5.9968    2.2206   -1.0461 C   0  0  0  0  0  0  0  0  0  0
   -7.1201    1.4021   -0.7223 N   0  0  0  0  0  0  0  0  0  0
   -7.2565    0.0005   -0.5601 C   0  0  0  0  0  0  0  0  0  0
   -5.9787   -0.5383   -0.6861 N   0  0  0  0  0  0  0  0  0  0
   -4.5190   -0.2389   -0.6854 C   0  0  0  0  0  0  0  0  0  0
   -4.6633    1.3271   -1.2215 C   0  0  0  0  0  0  0  0  0  0
   -2.7207    1.4425   -1.4524 C   0  0  0  0  0  0  0  0  0  0
   -2.0390    0.4546   -0.6476 C   0  0  0  0  0  0  0  0  0  0
   -2.9830   -0.5696   -0.4003 N   0  0  0  0  0  0  0  0  0  0
   -8.4379   -0.8258   -0.2322 N   0  0  0  0  0  0  0  0  0  0
   -8.4980   -2.3021   -0.1339 C   0  0  0  0  0  0  0  0  0  0
   -7.2833   -3.1444   -0.0576 C   0  0  0  0  0  0  0  0  0  0
   -7.2266   -4.6205   -0.0291 C   0  0  0  0  0  0  0  0  0  0
   -8.4955   -5.2902   -0.0199 C   0  0  0  0  0  0  0  0  0  0
   -9.7738   -4.5926   -0.0298 C   0  0  0  0  0  0  0  0  0  0
   -9.7493   -3.1211   -0.0730 C   0  0  0  0  0  0  0  0  0  0
   -8.2529   -6.7899   -0.0018 C   0  0  0  0  0  0  0  0  0  0
   -6.7307   -6.9594   -0.0013 C   0  0  0  0  0  0  0  0  0  0
   -6.1796   -5.6075   -0.0119 N   0  0  0  0  0  0  0  0  0  0
   -4.7661   -5.5793   -0.0060 C   0  0  0  0  0  0  0  0  0  0
   -3.7448   -6.7827   -0.0006 C   0  0  0  0  0  0  0  0  0  0
   -2.2174   -6.7335   -0.0006 N   0  0  0  0  0  0  0  0  0  0
   -1.3927   -5.5396   -0.0000 C   0  0  0  0  0  0  0  0  0  0
   -1.1801   -7.8211   -0.0001 C   0  0  0  0  0  0  0  0  0  0
   -4.2203   -4.3428   -0.0038 O   0  0  0  0  0  0  0  0  0  0
  -11.0153   -2.5188   -0.0423 O   0  0  0  0  0  0  0  0  0  0
  -12.4022   -3.0743   -0.0034 C   0  0  0  0  0  0  0  0  0  0
   -2.6453    7.3080    0.1715 F   0  0  0  0  0  0  0  0  0  0
   -5.1004    7.3723    1.0519 O   0  0  0  0  0  0  0  0  0  0
  1  2  1  0  0  0
  2  3  1  0  0  0
  3  4  1  0  0  0
  5  6  1  0  0  0
  6  7  2  0  0  0
  7  8  1  0  0  0
  8  9  2  0  0  0
  4  5  2  0  0  0
  4  9  1  0  0  0
  5 10  1  0  0  0
 10 11  1  0  0  0
 12 13  1  0  0  0
 13 14  2  0  0  0
 14 15  1  0  0  0
 15 16  1  0  0  0
 11 12  2  0  0  0
 11 16  1  0  0  0
 17 18  2  0  0  0
 18 19  1  0  0  0
 15 19  1  0  0  0
 16 17  1  0  0  0
 13 20  1  0  0  0
 20 21  1  0  0  0
 22 23  1  0  0  0
 23 24  2  0  0  0
 24 25  1  0  0  0
 25 26  2  0  0  0
 21 22  2  0  0  0
 21 26  1  0  0  0
 27 28  1  0  0  0
 28 29  1  0  0  0
 23 29  1  0  0  0
 24 27  1  0  0  0
 29 30  1  0  0  0
 30 31  1  0  0  0
 31 32  1  0  0  0
 32 33  1  0  0  0
 32 34  1  0  0  0
 30 35  2  0  0  0
 26 36  1  0  0  0
 36 37  1  0  0  0
  9 38  1  0  0  0
  3 39  2  0  0  0
M  END
> <Final Dreiding Energy>
2259.793538

> <Initial Dreiding Energy>
368071431.664137

$$$$