Molecule-1
  DSViewer          3D                             0

 38 42  0  0  0  0  0  0  0  0999 V2000
   -7.2153   -3.0173    0.3816 C   0  0  0  0  0  0  0  0  0  0
   -6.2269   -3.0501   -0.4795 N   0  0  0  0  0  0  0  0  0  0
   -6.4463   -4.4503   -0.0466 C   0  0  0  0  0  0  0  0  0  0
   -7.7645   -5.3263   -0.0486 C   0  0  0  0  0  0  0  0  0  0
   -9.0454   -4.7175   -0.2757 N   0  0  0  0  0  0  0  0  0  0
   -9.0204   -3.3852    0.0833 C   0  0  0  0  0  0  0  0  0  0
  -10.1163   -5.6019   -0.0079 C   0  0  0  0  0  0  0  0  0  0
   -5.4854   -1.7923   -0.0328 C   0  0  0  0  0  0  0  0  0  0
   -6.1952   -0.2574   -0.0296 C   0  0  0  0  0  0  0  0  0  0
   -5.5126    0.8958   -0.0122 C   0  0  0  0  0  0  0  0  0  0
   -6.1583    2.1938   -0.0112 C   0  0  0  0  0  0  0  0  0  0
   -7.6051    2.2375   -0.0028 C   0  0  0  0  0  0  0  0  0  0
   -8.5216    1.1137   -0.0005 C   0  0  0  0  0  0  0  0  0  0
   -7.6434    0.1142   -0.0058 C   0  0  0  0  0  0  0  0  0  0
   -7.9088    3.5302    0.0018 N   0  0  0  0  0  0  0  0  0  0
   -6.7843    4.2805   -0.0080 C   0  0  0  0  0  0  0  0  0  0
   -5.6279    3.4528   -0.0248 N   0  0  0  0  0  0  0  0  0  0
   -4.2135    3.5843   -0.0666 C   0  0  0  0  0  0  0  0  0  0
   -3.1813    2.5813   -0.0836 C   0  0  0  0  0  0  0  0  0  0
   -1.7946    2.9785   -0.2029 C   0  0  0  0  0  0  0  0  0  0
   -1.7399    4.4070   -0.1678 C   0  0  0  0  0  0  0  0  0  0
   -3.3727    5.1006   -0.1062 S   0  0  0  0  0  0  0  0  0  0
   -0.6524    5.3525   -0.1886 C   0  0  0  0  0  0  0  0  0  0
   -0.9393    6.6634   -0.3522 O   0  0  0  0  0  0  0  0  0  0
    0.6898    5.1797   -0.0500 N   0  0  0  0  0  0  0  0  0  0
   -0.6688    2.1041   -0.3514 O   0  0  0  0  0  0  0  0  0  0
   -0.4456    0.6228   -0.6533 C   0  0  0  0  0  0  0  0  0  0
   -1.8081    0.0950   -0.0631 C   0  0  0  0  0  0  0  0  0  0
    0.9745   -0.0717   -0.8144 C   0  0  0  0  0  0  0  0  0  0
    1.1403   -1.5345   -1.1023 C   0  0  0  0  0  0  0  0  0  0
    2.1094   -2.3084   -0.3718 C   0  0  0  0  0  0  0  0  0  0
    3.3155   -1.5812   -0.1612 C   0  0  0  0  0  0  0  0  0  0
    3.3409   -0.1316   -0.1609 C   0  0  0  0  0  0  0  0  0  0
    2.1450    0.6463   -0.3223 C   0  0  0  0  0  0  0  0  0  0
    0.1812   -2.2734   -1.9680 C   0  0  0  0  0  0  0  0  0  0
   -0.6042   -1.4548   -2.7439 F   0  0  0  0  0  0  0  0  0  0
    0.8565   -3.0916   -2.8413 F   0  0  0  0  0  0  0  0  0  0
   -0.6500   -3.0515   -1.1994 F   0  0  0  0  0  0  0  0  0  0
  1  2  1  0  0  0
  2  3  1  0  0  0
  3  4  1  0  0  0
  4  5  1  0  0  0
  5  6  1  0  0  0
  6  1  1  0  0  0
  5  7  1  0  0  0
  2  8  1  0  0  0
  8  9  1  0  0  0
 10 11  1  0  0  0
 11 12  2  0  0  0
 12 13  1  0  0  0
 13 14  2  0  0  0
  9 10  2  0  0  0
  9 14  1  0  0  0
 15 16  2  0  0  0
 16 17  1  0  0  0
 11 17  1  0  0  0
 12 15  1  0  0  0
 17 18  1  0  0  0
 19 20  1  0  0  0
 20 21  2  0  0  0
 21 22  1  0  0  0
 18 19  2  0  0  0
 18 22  1  0  0  0
 21 23  1  0  0  0
 23 24  2  0  0  0
 23 25  1  0  0  0
 20 26  1  0  0  0
 26 27  1  0  0  0
 27 28  1  0  0  0
 27 29  1  0  0  0
 30 31  1  0  0  0
 31 32  2  0  0  0
 32 33  1  0  0  0
 33 34  2  0  0  0
 29 30  2  0  0  0
 29 34  1  0  0  0
 30 35  1  0  0  0
 35 36  1  0  0  0
 35 37  1  0  0  0
 35 38  1  0  0  0
M  END
> <Final Dreiding Energy>
1698.634318

> <Initial Dreiding Energy>
12817558.813262

$$$$