11617559
  DSViewer          3D                             0

 27 29  0  0  0  0  0  0  0  0999 V2000
   -1.7216    0.6774    0.4239 O   0  0  0  0  0  0  0  0  0  1
   -0.6390   -1.8006   -0.2176 O   0  0  0  0  0  0  0  0  0  2
   -7.8560   -0.5420    0.6986 O   0  0  0  0  0  0  0  0  0  3
    5.9758   -1.1417    0.6902 N   0  0  0  0  0  0  0  0  0  4
    6.1323    1.2621    0.7576 N   0  0  0  0  0  0  0  0  0  5
    4.4200   -2.1978   -0.7548 N   0  0  0  0  0  0  0  0  0  6
    7.5069   -0.0733    2.1114 N   0  0  0  0  0  0  0  0  0  7
    2.1056    0.4207   -1.1645 C   0  0  0  0  0  0  0  0  0  8
    3.4806    0.3328   -1.7352 C   0  0  0  0  0  0  0  0  0  9
    1.3634   -0.7411   -0.9523 C   0  0  0  0  0  0  0  0  0 10
    4.5716    0.1956   -0.6923 C   0  0  0  0  0  0  0  0  0 11
   -0.4595    0.5838   -0.1007 C   0  0  0  0  0  0  0  0  0 12
    1.5617    1.6644   -0.8432 C   0  0  0  0  0  0  0  0  0 13
    0.0772   -0.6593   -0.4188 C   0  0  0  0  0  0  0  0  0 14
    0.2755    1.7461   -0.3099 C   0  0  0  0  0  0  0  0  0 15
   -2.6700    1.4332   -0.3195 C   0  0  0  0  0  0  0  0  0 16
   -4.0405    0.9106   -0.0505 C   0  0  0  0  0  0  0  0  0 17
    5.0051   -1.0154   -0.2384 C   0  0  0  0  0  0  0  0  0 18
    5.1567    1.3146   -0.1730 C   0  0  0  0  0  0  0  0  0 19
   -4.7930    1.4356    1.0001 C   0  0  0  0  0  0  0  0  0 20
   -4.5704   -0.1024   -0.8496 C   0  0  0  0  0  0  0  0  0 21
   -6.0753    0.9476    1.2515 C   0  0  0  0  0  0  0  0  0 22
   -5.8527   -0.5904   -0.5982 C   0  0  0  0  0  0  0  0  0 23
   -6.6050   -0.0655    0.4525 C   0  0  0  0  0  0  0  0  0 24
    6.4880    0.0203    1.1384 C   0  0  0  0  0  0  0  0  0 25
   -0.5010   -2.4371    1.0512 C   0  0  0  0  0  0  0  0  0 26
   -8.3362   -1.5780   -0.1569 C   0  0  0  0  0  0  0  0  0 27
  1 12  1  0  0  0
  1 16  1  0  0  0
  2 14  1  0  0  0
  2 26  1  0  0  0
  3 24  1  0  0  0
  3 27  1  0  0  0
  4 18  2  0  0  0
  4 25  1  0  0  0
  5 19  1  0  0  0
  5 25  2  0  0  0
  6 18  1  0  0  0
  7 25  1  0  0  0
  8  9  1  0  0  0
  8 10  2  0  0  0
  8 13  1  0  0  0
  9 11  1  0  0  0
 10 14  1  0  0  0
 11 18  1  0  0  0
 11 19  2  0  0  0
 12 14  2  0  0  0
 12 15  1  0  0  0
 13 15  2  0  0  0
 16 17  1  0  0  0
 17 20  2  0  0  0
 17 21  1  0  0  0
 20 22  1  0  0  0
 21 23  2  0  0  0
 22 24  2  0  0  0
 23 24  1  0  0  0
M  END
> <PUBCHEM_BOND_DEF_STEREO_COUNT>
0

> <PUBCHEM_MMFF94_PARTIAL_CHARGES>
39
1 -0.36
10 -0.15
11 -0.14
12 0.08
13 -0.15
14 0.08
15 -0.15
16 0.42
17 -0.14
18 0.41
19 0.16
2 -0.36
20 -0.15
21 -0.15
22 -0.15
23 -0.15
24 0.08
25 0.72
26 0.28
27 0.28
3 -0.36
30 0.15
31 0.15
32 0.15
35 0.15
36 0.15
37 0.15
38 0.15
39 0.15
4 -0.62
40 0.4
41 0.4
45 0.4
46 0.4
5 -0.62
6 -0.9
7 -0.9
8 -0.14
9 0.29

> <PUBCHEM_MMFF94_ENERGY>
113.3472

> <PUBCHEM_ISOTOPIC_ATOM_COUNT>
0

> <PUBCHEM_ATOM_DEF_STEREO_COUNT>
0

> <PUBCHEM_PHARMACOPHORE_FEATURES>
9
1 1 acceptor
1 2 acceptor
1 3 acceptor
1 6 donor
1 7 donor
4 4 5 7 25 cation
6 17 20 21 22 23 24 rings
6 4 5 11 18 19 25 rings
6 8 10 12 13 14 15 rings

> <PUBCHEM_EFFECTIVE_ROTOR_COUNT>
7

> <PUBCHEM_CONFORMER_RMSD>
1

> <PUBCHEM_COMPOUND_CID>
11617559

> <PUBCHEM_ATOM_UDEF_STEREO_COUNT>
0

> <PUBCHEM_SHAPE_MULTIPOLES>
518.12
22.32
1.93
1.32
12.05
4.5
8.03
-11.49
-11.8
-2.8
14.77
-2.37
10.74
8.81

> <PUBCHEM_CONFORMER_ID>
00B1451700000001

> <PUBCHEM_CONFORMER_DIVERSEORDER>
1
460
524
14
475
60
469
339
73
157
116
358
430
517
423
601
182
463
7
464
449
160
381
142
440
189
361
33
38
98
244
265
44
587
534
422
281
335
473
199
2
507
3
198
37
235
59
305
523
597
122
395
386
219
327
184
92
389
49
627
621
166
341
253
251
273
15
323
156
492
575
444
336
186
480
261
613
188
298
321
171
390
200
622
619
40
334
438
30
626
205
88
450
22
399
190
51
165
129
293
625
84
291
5
284
152
25
308
465
106
202
187
491
90
586
168
148
593
87
132
31
109
352
312
208
180
103
154
136
35
11
76
58
66
45
36
61
203
416
127
496
47
54
536
48
113
20
32
28
4
12
197
13

> <PUBCHEM_SHAPE_VOLUME>
284.1

> <PUBCHEM_SHAPE_FINGERPRINT>
10 15 16732701649475207061
10533779 47 17531241821009355758
106641 1 18335424547943483216
11578080 2 17024605386348091058
11719270 70 18272649065089589171
11991303 11 15984808291286078259
12166972 35 14333115365514568581
12236239 1 18187075192144435205
12838862 33 18334022709720985517
13073987 5 18041558147653570357
13533116 47 18263076764545832558
13782708 43 16343407424421013241
13862211 1 18273210915393979557
13914758 101 16272214111152624981
14251764 18 18413106147946458564
14461889 52 17967811630677936398
14849402 71 17895194338082774209
15064981 113 13901643900679417787
15183329 4 18201992227263757775
15706992 2 15936691463536404224
15849732 13 17203331096048157852
16994733 274 16515680074101587307
190975 80 18260830384463676041
2026 5 16702029719977129027
20567600 75 15339122367953129023
21130935 74 18041553754208358655
21416382 177 17894348860995728700
21521721 280 15140678081419064391
221357 26 9655578526764573166
22149856 69 18041823108966110603
22224240 67 16660363680162016389
23081809 10 17917135182851230397
23522609 53 18051937495014416157
23559900 14 18337654383631702734
23569917 315 18341886415749865602
23569943 247 17683218615180123574
29717793 49 12247674972441923428
3178227 256 18342444929760478305
34797466 226 15719385131804821212
3663271 9 17894908568280249899
4340502 62 18260832618289755862
5104073 3 18042964461580027040
6081469 158 17275107203026534751
6328613 192 9511454529188820415
6394761 36 13686303478409969267

> <PUBCHEM_HEAVY_ATOM_COUNT>
27

> <PUBCHEM_CACTVS_TAUTO_COUNT>
9

> <PUBCHEM_COORDINATE_TYPE>
2
5
255

> <PUBCHEM_SHAPE_SELFOVERLAP>
1115.596

> <PUBCHEM_FEATURE_SELFOVERLAP>
45.673

> <PUBCHEM_COMPONENT_COUNT>
1

> <PUBCHEM_BOND_UDEF_STEREO_COUNT>
0

$$$$