Molecule-1
  DSViewer          3D                             0

 34 37  0  0  0  0  0  0  0  0999 V2000
   -6.6425    1.1771   -0.0002 C   0  0  0  0  0  0  0  0  0  0
   -5.4108    0.4189   -0.0005 C   0  0  0  0  0  0  0  0  0  0
   -5.3999   -1.0348   -0.0006 C   0  0  0  0  0  0  0  0  0  0
   -6.6512   -1.7284   -0.0003 C   0  0  0  0  0  0  0  0  0  0
   -7.8964   -1.0177   -0.0001 C   0  0  0  0  0  0  0  0  0  0
   -7.8870    0.4487   -0.0001 C   0  0  0  0  0  0  0  0  0  0
   -4.1726   -1.7338   -0.0009 N   0  0  0  0  0  0  0  0  0  0
   -2.8853   -1.1951   -0.0003 C   0  0  0  0  0  0  0  0  0  0
   -3.0090    0.1687   -0.0002 C   0  0  0  0  0  0  0  0  0  0
   -4.1327    1.0514   -0.0004 C   0  0  0  0  0  0  0  0  0  0
   -9.0556    1.2151   -0.0000 O   0  0  0  0  0  0  0  0  0  0
   -9.2345    2.6875   -0.0000 C   0  0  0  0  0  0  0  0  0  0
   -9.0626   -1.7974   -0.0000 O   0  0  0  0  0  0  0  0  0  0
   -9.4121   -3.2541   -0.0000 C   0  0  0  0  0  0  0  0  0  0
   -3.9184    2.4528    0.0001 O   0  0  0  0  0  0  0  0  0  0
   -2.8441    3.3738    0.0009 C   0  0  0  0  0  0  0  0  0  0
   -1.5279    2.9088   -0.0023 C   0  0  0  0  0  0  0  0  0  0
   -0.2586    3.4704    0.0074 C   0  0  0  0  0  0  0  0  0  0
   -0.2460    4.8647    0.0384 C   0  0  0  0  0  0  0  0  0  0
   -1.6184    5.4802    0.0167 C   0  0  0  0  0  0  0  0  0  0
   -2.9050    4.7734    0.0064 C   0  0  0  0  0  0  0  0  0  0
   -1.7752    6.8145    0.0044 O   0  0  0  0  0  0  0  0  0  0
   -0.5894    7.5369   -0.0014 C   0  0  0  0  0  0  0  0  0  0
    1.0247    5.5344    0.0946 N   0  0  0  0  0  0  0  0  0  0
    2.2496    5.1534    0.5259 C   0  0  0  0  0  0  0  0  0  0
    3.4280    5.7726    0.1670 N   0  0  0  0  0  0  0  0  0  0
    4.6859    5.0592    0.0289 C   0  0  0  0  0  0  0  0  0  0
    5.9443    5.9544   -0.0045 C   0  0  0  0  0  0  0  0  0  0
    7.5626    5.3179   -0.0573 S   0  0  0  0  0  0  0  0  0  0
    8.1990    6.9087   -0.0142 C   0  0  0  0  0  0  0  0  0  0
    7.2338    7.9322   -0.0026 C   0  0  0  0  0  0  0  0  0  0
    5.9986    7.3312    0.0103 N   0  0  0  0  0  0  0  0  0  0
    5.0355    3.5211    0.0046 C   0  0  0  0  0  0  0  0  0  0
    2.2920    4.1827    1.4675 O   0  0  0  0  0  0  0  0  0  0
  1  2  1  0  0  0
  2  3  2  0  0  0
  3  4  1  0  0  0
  4  5  2  0  0  0
  5  6  1  0  0  0
  6  1  2  0  0  0
  7  8  2  0  0  0
  8  9  1  0  0  0
  9 10  2  0  0  0
  2 10  1  0  0  0
  3  7  1  0  0  0
  6 11  1  0  0  0
 11 12  1  0  0  0
  5 13  1  0  0  0
 13 14  1  0  0  0
 10 15  1  0  0  0
 15 16  1  0  0  0
 17 18  1  0  0  0
 18 19  2  0  0  0
 19 20  1  0  0  0
 20 21  2  0  0  0
 16 17  2  0  0  0
 16 21  1  0  0  0
 20 22  1  0  0  0
 22 23  1  0  0  0
 19 24  1  0  0  0
 24 25  1  0  0  0
 25 26  1  0  0  0
 26 27  1  0  0  0
 27 28  1  0  0  0
 29 30  1  0  0  0
 30 31  2  0  0  0
 31 32  1  0  0  0
 28 29  1  0  0  0
 28 32  2  0  0  0
 27 33  1  0  0  0
 25 34  2  0  0  0
M  END
> <Final Dreiding Energy>
596.761424

> <Initial Dreiding Energy>
4364.837879

$$$$