10113978
  DSViewer          3D                             0

 31 34  0  0  0  0  0  0  0  0999 V2000
    4.1848   -2.5656   -0.3934 S   0  0  0  0  0  0  0  0  0  1
    3.0881   -2.5884   -1.3492 O   0  0  0  0  0  0  0  0  0  2
    5.4000   -3.3187   -0.6639 O   0  0  0  0  0  0  0  0  0  3
   -6.5720   -0.9547   -0.7950 N   0  0  0  0  0  0  0  0  0  4
   -1.0158    0.0966    0.3859 N   0  0  0  0  0  0  0  0  0  5
   -5.4120   -1.0290   -1.4761 N   0  0  0  0  0  0  0  0  0  6
    3.0284    2.4404   -0.3213 N   0  0  0  0  0  0  0  0  0  7
    1.0327    1.2590    0.0350 N   0  0  0  0  0  0  0  0  0  8
    0.9978    3.5567   -0.6908 N   0  0  0  0  0  0  0  0  0  9
    3.5896   -3.0141    1.1434 N   0  0  0  0  0  0  0  0  0 10
   -5.1109   -0.3149    0.6590 C   0  0  0  0  0  0  0  0  0 11
   -4.4744   -0.6355   -0.5961 C   0  0  0  0  0  0  0  0  0 12
   -6.4501   -0.5298    0.4957 C   0  0  0  0  0  0  0  0  0 13
   -2.4275   -0.0620    0.4252 C   0  0  0  0  0  0  0  0  0 14
   -3.0807   -0.5121   -0.7432 C   0  0  0  0  0  0  0  0  0 15
   -4.4981    0.1294    1.8238 C   0  0  0  0  0  0  0  0  0 16
   -3.1049    0.2430    1.6476 C   0  0  0  0  0  0  0  0  0 17
   -7.6038   -0.3842    1.4035 C   0  0  0  0  0  0  0  0  0 18
   -0.3161    1.2732    0.0197 C   0  0  0  0  0  0  0  0  0 19
    4.6234   -0.8967   -0.1025 C   0  0  0  0  0  0  0  0  0 20
   -7.7980   -1.3189   -1.4682 C   0  0  0  0  0  0  0  0  0 21
    5.9002   -0.5518    0.3411 C   0  0  0  0  0  0  0  0  0 22
    3.9653    1.4638   -0.1052 C   0  0  0  0  0  0  0  0  0 23
   -0.2507   -1.1505    0.4950 C   0  0  0  0  0  0  0  0  0 24
    3.6696    0.0971   -0.3227 C   0  0  0  0  0  0  0  0  0 25
    6.2229    0.7866    0.5650 C   0  0  0  0  0  0  0  0  0 26
    5.2691    1.7802    0.3449 C   0  0  0  0  0  0  0  0  0 27
    1.6166    2.4175   -0.3259 C   0  0  0  0  0  0  0  0  0 28
   -1.0681    2.3745   -0.3338 C   0  0  0  0  0  0  0  0  0 29
    6.9448   -1.5910    0.5862 C   0  0  0  0  0  0  0  0  0 30
   -0.3502    3.4998   -0.6836 C   0  0  0  0  0  0  0  0  0 31
  1  2  2  0  0  0
  1  3  2  0  0  0
  1 10  1  0  0  0
  1 20  1  0  0  0
  4  6  1  0  0  0
  4 13  1  0  0  0
  4 21  1  0  0  0
  5 14  1  0  0  0
  5 19  1  0  0  0
  5 24  1  0  0  0
  6 12  2  0  0  0
  7 23  1  0  0  0
  7 28  1  0  0  0
  8 19  2  0  0  0
  8 28  1  0  0  0
  9 28  2  0  0  0
  9 31  1  0  0  0
 11 12  1  0  0  0
 11 13  2  0  0  0
 11 16  1  0  0  0
 12 15  1  0  0  0
 13 18  1  0  0  0
 14 15  2  0  0  0
 14 17  1  0  0  0
 16 17  2  0  0  0
 19 29  1  0  0  0
 20 22  2  0  0  0
 20 25  1  0  0  0
 22 26  1  0  0  0
 22 30  1  0  0  0
 23 25  2  0  0  0
 23 27  1  0  0  0
 26 27  2  0  0  0
 29 31  2  0  0  0
M  END
> <PUBCHEM_CACTVS_TAUTO_COUNT>
3

> <PUBCHEM_FEATURE_SELFOVERLAP>
50.893

> <PUBCHEM_PHARMACOPHORE_FEATURES>
10
1 10 donor
1 2 acceptor
1 3 acceptor
1 6 acceptor
1 7 donor
4 7 8 9 28 cation
5 4 6 11 12 13 rings
6 11 12 14 15 16 17 rings
6 20 22 23 25 26 27 rings
6 8 9 19 28 29 31 rings

> <PUBCHEM_COMPONENT_COUNT>
1

> <PUBCHEM_BOND_UDEF_STEREO_COUNT>
0

> <PUBCHEM_COMPOUND_CID>
10113978

> <PUBCHEM_SHAPE_VOLUME>
331.9

> <PUBCHEM_HEAVY_ATOM_COUNT>
31

> <PUBCHEM_CONFORMER_DIVERSEORDER>
2
493
66
518
98
128
174
403
137
108
297
240
237
424
8
452
23
438
203
49
426
151
395
318
13
129
150
388
74
482
118
430
320
190
52
428
14
103
31
109
342
82
29
83
89
319
326
207
231
514
382
146
145
65
304
40
115
390
279
20
496
25
270
32
227
15
268
519
68
93
12
88
510
148
161
330
140
332
69
236
380
364
97
193
475
178
286
253
281
348
87
239
500
144
269
9
48
11
200
185
217
274
336
280
306
276
149
210
91
361
170
411
10
406
323
7
184
308
114
34
55
325
62
61
501
81
398
431
92
271
366
353
389
464
345
1
51
349
75
449
107
295
257
44
244
19
86
63
463
154
448
172
36
37
456
373
469
168
45
30
171
208
497
272
70
133
302
56
33
43
101
233
351
339
488
90
419
99
41
368
212
124
162
77
21
189
425
3
26
64
355
260
80
4
127
60
38
22

> <PUBCHEM_MMFF94_ENERGY>
107.7916

> <PUBCHEM_ISOTOPIC_ATOM_COUNT>
0

> <PUBCHEM_BOND_DEF_STEREO_COUNT>
0

> <PUBCHEM_EFFECTIVE_ROTOR_COUNT>
5

> <PUBCHEM_CONFORMER_RMSD>
1

> <PUBCHEM_SHAPE_SELFOVERLAP>
1286.801

> <PUBCHEM_MMFF94_PARTIAL_CHARGES>
41
1 1.45
10 -0.98
12 0.29
13 -0.33
14 0.1
15 -0.15
16 -0.15
17 -0.15
18 0.18
19 0.41
2 -0.65
20 -0.01
21 0.26
22 -0.14
23 0.1
24 0.37
25 -0.15
26 -0.15
27 -0.15
28 0.72
29 -0.15
3 -0.65
30 0.14
31 0.16
32 0.15
33 0.15
34 0.15
4 0.31
44 0.15
45 0.15
46 0.15
47 0.4
48 0.15
5 -0.57
52 0.15
53 0.42
54 0.42
6 -0.71
7 -0.6
8 -0.62
9 -0.62

> <PUBCHEM_ATOM_UDEF_STEREO_COUNT>
0

> <PUBCHEM_ATOM_DEF_STEREO_COUNT>
0

> <PUBCHEM_COORDINATE_TYPE>
2
5
255

> <PUBCHEM_SHAPE_MULTIPOLES>
595.21
20.59
3.48
1.26
12.05
-11.69
-0.02
-0.36
-1.24
6.04
-3.65
-2.21
26.1
-30.3

> <PUBCHEM_CONFORMER_ID>
009A53BA00000002

> <PUBCHEM_SHAPE_FINGERPRINT>
10 15 4967611689214011568
10693767 8 18337682944600478071
11211813 128 18335985368337177474
11409948 41 18262254261234671399
12166972 35 18260547767416627049
12202916 173 18343869918326680858
12236239 1 18040712533682070849
12422481 6 17896873446872034725
12596602 18 17022899047707837736
12623949 98 17968929924914954382
12760667 363 18342457058068010304
13150687 139 17984958464376775660
13533116 47 18261109656053689912
1361 2 18408039611177228658
13685833 64 18272087180198094393
13782708 43 17345459394125868739
13947947 19 18337104563351379814
13989917 61 18339356358069030002
14347332 77 18408604790429445797
1454969 45 18339637851127248444
14681490 219 18342744034913573241
14725015 67 18271535281844255618
14784336 7 17969507009336558809
14840074 17 18260267434620914734
15119646 104 18334011687837975719
15183329 4 18410575055136495237
15419008 47 17561086908323833933
15510800 12 18130780174958274322
17492 89 18194967581208986322
17852330 134 18269294498980257877
17857418 61 18187081741515744513
20511986 3 17894921697663152517
20721686 56 18341889710505934490
21197605 99 18408042905981315862
21279426 13 18201726210148905477
21315764 119 15051737516501595066
21365058 113 16916782951318213565
21682296 61 18413386549212902625
22224240 67 18187651242149315560
23559900 14 18270683035504591889
23569914 152 17549861070945846167
23569943 247 18339365265920750011
3004659 81 17775287153856073540
345986 75 18113617932241053024
34797466 226 16271636785521625317
3633792 109 18410299121126402135
394071 54 18409158892507099002
397830 11 6627172793692724615
4046055 4 18059855112036181164
463206 1 18338518526240108494
513202 73 18341612659377303973
5326457 24 18187366480868411263
6004065 56 18337956671023117937
6299153 45 18262225716913481985
9980921 52 17969242177110902471

$$$$