9884685
  DSViewer          3D                             0

 26 30  0  0  0  0  0  0  0  0999 V2000
   -1.5647   -5.0952    0.2472 O   0  0  0  0  0  0  0  0  0  1
   -2.6546   -0.0438   -0.0806 O   0  0  0  0  0  0  0  0  0  2
    5.8297   -0.7551   -0.8827 O   0  0  0  0  0  0  0  0  0  3
   -0.8678   -2.3794    0.0529 N   0  0  0  0  0  0  0  0  0  4
    0.9031   -0.7681    0.0928 N   0  0  0  0  0  0  0  0  0  5
    0.4644    1.6324    0.0160 N   0  0  0  0  0  0  0  0  0  6
   -4.3988    1.5798   -0.1964 N   0  0  0  0  0  0  0  0  0  7
   -0.0020   -3.4122   -0.5326 C   0  0  0  0  0  0  0  0  0  8
   -1.7521   -2.8421    1.1280 C   0  0  0  0  0  0  0  0  0  9
   -0.4169   -1.0555    0.0419 C   0  0  0  0  0  0  0  0  0 10
   -0.8342   -4.6382   -0.8909 C   0  0  0  0  0  0  0  0  0 11
   -2.4901   -4.0998    0.6826 C   0  0  0  0  0  0  0  0  0 12
   -1.2989    0.0027   -0.0222 C   0  0  0  0  0  0  0  0  0 13
   -0.8521    1.3152   -0.0342 C   0  0  0  0  0  0  0  0  0 14
   -2.0093    2.1285   -0.1046 C   0  0  0  0  0  0  0  0  0 15
    1.2573    0.5396    0.0771 C   0  0  0  0  0  0  0  0  0 16
   -3.0946    1.2499   -0.1311 C   0  0  0  0  0  0  0  0  0 17
    2.6738    0.8006    0.1348 C   0  0  0  0  0  0  0  0  0 18
   -2.2849    3.5034   -0.1499 C   0  0  0  0  0  0  0  0  0 19
   -3.6202    3.8954   -0.2181 C   0  0  0  0  0  0  0  0  0 20
    3.5795   -0.1145   -0.4083 C   0  0  0  0  0  0  0  0  0 21
    3.1487    1.9705    0.7338 C   0  0  0  0  0  0  0  0  0 22
   -4.6047    2.9164   -0.2377 C   0  0  0  0  0  0  0  0  0 23
    4.9502    0.1385   -0.3529 C   0  0  0  0  0  0  0  0  0 24
    4.5191    2.2234    0.7892 C   0  0  0  0  0  0  0  0  0 25
    5.4199    1.3075    0.2458 C   0  0  0  0  0  0  0  0  0 26
  1 11  1  0  0  0
  1 12  1  0  0  0
  2 13  1  0  0  0
  2 17  1  0  0  0
  3 24  1  0  0  0
  4  8  1  0  0  0
  4  9  1  0  0  0
  4 10  1  0  0  0
  5 10  2  0  0  0
  5 16  1  0  0  0
  6 14  1  0  0  0
  6 16  2  0  0  0
  7 17  1  0  0  0
  7 23  2  0  0  0
  8 11  1  0  0  0
  9 12  1  0  0  0
 10 13  1  0  0  0
 13 14  2  0  0  0
 14 15  1  0  0  0
 15 17  2  0  0  0
 15 19  1  0  0  0
 16 18  1  0  0  0
 18 21  2  0  0  0
 18 22  1  0  0  0
 19 20  2  0  0  0
 20 23  1  0  0  0
 21 24  1  0  0  0
 22 25  2  0  0  0
 24 26  2  0  0  0
 25 26  1  0  0  0
M  END
> <PUBCHEM_SHAPE_MULTIPOLES>
497.54
9.63
6.46
0.81
4.09
-0.08
0.56
-0.96
-1.93
1.06
1.03
5.83
30.1
-26.66

> <PUBCHEM_PHARMACOPHORE_FEATURES>
11
1 1 acceptor
1 2 acceptor
1 3 donor
1 7 acceptor
3 4 5 10 cation
3 5 6 16 cation
5 2 13 14 15 17 rings
6 1 4 8 9 11 12 rings
6 18 21 22 24 25 26 rings
6 5 6 10 13 14 16 rings
6 7 15 17 19 20 23 rings

> <PUBCHEM_COMPOUND_CID>
9884685

> <PUBCHEM_SHAPE_VOLUME>
258.8

> <PUBCHEM_SHAPE_FINGERPRINT>
10050765 1 17690000455421119117
10319926 262 18264226738076711864
10411042 1 17691125937665841242
10940486 97 18271514318046067796
1100329 8 18052540972383515865
11056379 131 18195799679445361268
12160290 23 18055102919758557275
12173636 292 18410862078715528525
12202916 173 17608647546984406742
12293681 160 17895761831942555816
12553582 1 17546158602588015750
12643181 29 18338510950672490902
12788726 201 18127985100093634954
13004483 165 17905332822974577578
13140716 1 17980199690922981177
13540713 4 18114742621789998248
13540713 5 17394180154660550361
13690498 29 18119789337090245222
13757389 114 18270666624223940876
13785724 45 17690258431597700523
138480 1 17257654946040584827
13955234 65 17833829748470584393
14178342 30 18269009591839471240
14790565 3 18266740379574642648
14844126 61 18268720398237012674
15042514 8 18268144258576129315
15230672 131 18269267028312267102
15475509 79 18337659889315843991
15664445 248 16968273935497780892
15705408 1 17690000454296428951
15927050 60 18338237171301553094
16087824 20 18267306435839322111
17539 30 18192439562772641847
17913733 40 18192412268830495857
17980427 26 17977115870071024253
1813 80 17616233798440851174
19591789 44 18338799042921822483
20101258 96 17978506429915006904
20238998 34 18048313349874465929
21033648 29 18335994141811177720
21049683 118 18197524932937146265
21065198 57 18410576146348578936
21133410 171 17256589154919741282
21307412 95 17970606688985349326
21478907 32 18050569538738655827
21796203 349 16976148667819584906
22849339 104 18265873853175205998
23366157 5 17622720242934843237
23558518 356 18128256684388234408
23559900 14 17546738509320124537
23598288 3 17986093141761374894
3091708 16 9124849730823512763
3103668 31 18270410365654209687
3298306 158 18262796414528644454
3759504 43 18411983584833533604
4058900 60 18124585642137499681
4073 2 18411140204762116064
4409770 3 18340774724116135439
532947 4 18047747393259379454
5385378 56 17976815716329593673
6138700 20 17903915901117340182
6442390 28 18339363075297218957
6669772 16 18190738841638758902
6700243 42 17685734014891023428
7164475 11 18052816945222556788
7364860 26 17833272300100912253
7399639 24 17467081748162604312
77188 2 17547010724030684439
79837 15 18411695500229033345
9709674 26 18262520291234132516
9777508 108 18337115566303269888
9981440 41 18340770463461216161

> <PUBCHEM_CACTVS_TAUTO_COUNT>
3

> <PUBCHEM_BOND_UDEF_STEREO_COUNT>
0

> <PUBCHEM_ATOM_DEF_STEREO_COUNT>
0

> <PUBCHEM_COORDINATE_TYPE>
2
5
255

> <PUBCHEM_SHAPE_SELFOVERLAP>
1121.328

> <PUBCHEM_FEATURE_SELFOVERLAP>
56.207

> <PUBCHEM_COMPONENT_COUNT>
1

> <PUBCHEM_CONFORMER_RMSD>
0.6

> <PUBCHEM_MMFF94_ENERGY>
76.4664

> <PUBCHEM_ISOTOPIC_ATOM_COUNT>
0

> <PUBCHEM_CONFORMER_DIVERSEORDER>
1
19
16
13
12
18
17
14
10
4
15
8
5
11
9
6
3
2
7

> <PUBCHEM_BOND_DEF_STEREO_COUNT>
0

> <PUBCHEM_MMFF94_PARTIAL_CHARGES>
32
1 -0.56
10 0.41
11 0.28
12 0.28
13 0.14
14 0.26
16 0.62
17 0.4
19 -0.15
2 -0.28
20 -0.15
21 -0.15
22 -0.15
23 0.16
24 0.08
25 -0.15
26 -0.15
3 -0.53
35 0.15
36 0.15
37 0.15
38 0.15
39 0.15
4 -0.84
40 0.15
41 0.15
42 0.45
5 -0.62
6 -0.57
7 -0.57
8 0.37
9 0.37

> <PUBCHEM_HEAVY_ATOM_COUNT>
26

> <PUBCHEM_EFFECTIVE_ROTOR_COUNT>
3.2

> <PUBCHEM_CONFORMER_ID>
0096D40D00000001

> <PUBCHEM_ATOM_UDEF_STEREO_COUNT>
0

$$$$