151194
  DSViewer          3D                             0

 25 28  0  0  0  0  0  0  0  0999 V2000
    6.4826   -3.0002   -0.5588 Cl  0  0  0  0  0  0  0  0  0  1
    2.1996    0.9390    0.5350 N   0  0  0  0  0  0  0  0  0  2
   -1.1473   -0.3861    0.2273 N   0  0  0  0  0  0  0  0  0  3
    0.1971   -0.3006    0.4088 N   0  0  0  0  0  0  0  0  0  4
   -4.5517   -3.5610    0.1546 N   0  0  0  0  0  0  0  0  0  5
   -1.2768    2.0001   -0.1033 C   0  0  0  0  0  0  0  0  0  6
    0.1106    2.0884    0.0847 C   0  0  0  0  0  0  0  0  0  7
   -1.8543    0.7378   -0.0210 C   0  0  0  0  0  0  0  0  0  8
   -3.3218    0.5294   -0.2042 C   0  0  0  0  0  0  0  0  0  9
    0.7985    0.9068    0.3378 C   0  0  0  0  0  0  0  0  0 10
   -2.0187    3.1647   -0.3620 C   0  0  0  0  0  0  0  0  0 11
   -3.7557   -0.9162   -0.0775 C   0  0  0  0  0  0  0  0  0 12
    0.7433    3.3409    0.0122 C   0  0  0  0  0  0  0  0  0 13
   -1.3808    4.4039   -0.4321 C   0  0  0  0  0  0  0  0  0 14
   -0.0024    4.4918   -0.2453 C   0  0  0  0  0  0  0  0  0 15
    3.2164    0.0049    0.2745 C   0  0  0  0  0  0  0  0  0 16
   -4.1182   -1.4055    1.1596 C   0  0  0  0  0  0  0  0  0 17
   -3.7807   -1.7141   -1.2017 C   0  0  0  0  0  0  0  0  0 18
    4.3640   -0.0252    1.0715 C   0  0  0  0  0  0  0  0  0 19
    3.0852   -0.9004   -0.7820 C   0  0  0  0  0  0  0  0  0 20
   -4.5083   -2.7335    1.2227 C   0  0  0  0  0  0  0  0  0 21
   -4.1858   -3.0284   -1.0328 C   0  0  0  0  0  0  0  0  0 22
    5.3730   -0.9532    0.8137 C   0  0  0  0  0  0  0  0  0 23
    4.0941   -1.8285   -1.0396 C   0  0  0  0  0  0  0  0  0 24
    5.2380   -1.8549   -0.2420 C   0  0  0  0  0  0  0  0  0 25
  1 25  1  0  0  0
  2 10  1  0  0  0
  2 16  1  0  0  0
  3  4  1  0  0  0
  3  8  2  0  0  0
  4 10  2  0  0  0
  5 21  2  0  0  0
  5 22  1  0  0  0
  6  7  1  0  0  0
  6  8  1  0  0  0
  6 11  2  0  0  0
  7 10  1  0  0  0
  7 13  2  0  0  0
  8  9  1  0  0  0
  9 12  1  0  0  0
 11 14  1  0  0  0
 12 17  2  0  0  0
 12 18  1  0  0  0
 13 15  1  0  0  0
 14 15  2  0  0  0
 16 19  2  0  0  0
 16 20  1  0  0  0
 17 21  1  0  0  0
 18 22  2  0  0  0
 19 23  1  0  0  0
 20 24  2  0  0  0
 23 25  2  0  0  0
 24 25  1  0  0  0
M  END
> <PUBCHEM_ATOM_DEF_STEREO_COUNT>
0

> <PUBCHEM_CONFORMER_RMSD>
0.8

> <PUBCHEM_SHAPE_FINGERPRINT>
10254770 206 16397471884217640522
10411042 1 18411698755745840483
11056379 131 18267583700961605332
11809386 21 18198064879589184794
12107183 9 18336249169211761691
12363563 72 18341325609047350083
12403259 226 18334583455797274720
12422481 6 17458339754031557094
12788726 201 18343858922993689610
13140716 1 18410292489286246337
13690498 29 18262786484954704926
13782708 43 18113620136313980510
138480 1 15384440217277016509
13899415 180 18339652143775647815
13955234 65 17688586066248556953
14844126 61 18268707388712293099
14863182 85 17907862799547023476
14866123 147 18337668749981108041
14950920 106 16153433804888917002
15042514 8 18339076098715295969
15230672 131 17547284962542292454
15250474 111 17913215536121389594
17492 89 18122063101214148883
17539 30 18339650052216784669
1813 80 18263068951461861207
18927931 339 18338231677900711958
19141452 34 18261107525971554457
19427546 20 18270956972777014996
20101258 96 18411694404891306809
20505436 4 17270027673437707824
21065201 7 18193848256896541648
21307412 95 18337399335188058487
21796203 349 17979884195336272090
22122407 14 15719401658548677529
22849339 104 17976525428100506372
22950370 63 18411129204169033907
23557571 272 18190461752082009332
23559900 14 17974015248056044712
3103668 31 18200322138681051565
3421961 26 18193839241217147513
4073 2 18192152814435752794
44062 13 18192993949057042950
4409770 3 18198061589559801077
463206 1 18272368624989429635
5104073 3 18187652470261653154
5309563 4 18410855430254041835
613672 6 18267605549091345331
6669772 16 17472969606764383004
6673363 416 18337377277091315508
6700243 42 17754137025625391004
7399639 24 18116452383614048232
7970288 3 18338800013611857539

> <PUBCHEM_CACTVS_TAUTO_COUNT>
2

> <PUBCHEM_ATOM_UDEF_STEREO_COUNT>
0

> <PUBCHEM_MMFF94_PARTIAL_CHARGES>
36
1 -0.18
10 0.41
11 -0.15
12 -0.14
13 -0.15
14 -0.15
15 -0.15
16 0.1
17 -0.15
18 -0.15
19 -0.15
2 -0.6
20 -0.15
21 0.16
22 0.16
23 -0.15
24 -0.15
25 0.18
28 0.15
29 0.15
3 -0.31
30 0.4
31 0.15
32 0.15
33 0.15
34 0.15
35 0.15
36 0.15
37 0.15
38 0.15
39 0.15
4 -0.31
40 0.15
5 -0.62
8 0.17
9 0.29

> <PUBCHEM_HEAVY_ATOM_COUNT>
25

> <PUBCHEM_COORDINATE_TYPE>
2
5
255

> <PUBCHEM_FEATURE_SELFOVERLAP>
40.621

> <PUBCHEM_COMPONENT_COUNT>
1

> <PUBCHEM_BOND_UDEF_STEREO_COUNT>
0

> <PUBCHEM_CONFORMER_DIVERSEORDER>
1
33
31
28
6
27
20
21
15
18
11
26
12
24
16
22
3
2
32
30
9
14
17
19
29
13
25
8
23
4
10
7
5

> <PUBCHEM_SHAPE_VOLUME>
265.9

> <PUBCHEM_MMFF94_ENERGY>
90.6708

> <PUBCHEM_ISOTOPIC_ATOM_COUNT>
0

> <PUBCHEM_BOND_DEF_STEREO_COUNT>
0

> <PUBCHEM_SHAPE_SELFOVERLAP>
1091.822

> <PUBCHEM_CONFORMER_ID>
00024E9A00000001

> <PUBCHEM_PHARMACOPHORE_FEATURES>
8
1 2 donor
1 3 acceptor
1 5 acceptor
3 2 4 10 cation
6 16 19 20 23 24 25 rings
6 3 4 6 7 8 10 rings
6 5 12 17 18 21 22 rings
6 6 7 11 13 14 15 rings

> <PUBCHEM_COMPOUND_CID>
151194

> <PUBCHEM_SHAPE_MULTIPOLES>
496.43
12.41
5.65
1.03
9.31
-13.78
-0.85
1.36
-6.26
6.62
1.9
4.76
23.67
-45.64

> <PUBCHEM_EFFECTIVE_ROTOR_COUNT>
4

$$$$