156414
  DSViewer          3D                             0

 34 37  0  0  0  0  0  0  0  0999 V2000
    1.1762  -15.1036    3.0959 Cl  0  0  0  0  0  0  0  0  0  1
    3.7996  -15.1305    4.4765 F   0  0  0  0  0  0  0  0  0  2
   -5.4445   -0.9270   -0.2271 O   0  0  0  0  0  0  0  0  0  3
    0.2667   -5.7272   -1.5647 O   0  0  0  0  0  0  0  0  0  4
    2.9653   -6.7671    2.6389 O   0  0  0  0  0  0  0  0  0  5
   -3.5880   -2.8021   -1.2945 N   0  0  0  0  0  0  0  0  0  6
    1.7069   -5.9153    0.8419 N   0  0  0  0  0  0  0  0  0  7
    3.1174  -10.8110    1.0844 N   0  0  0  0  0  0  0  0  0  8
    0.9723  -10.3600   -2.4260 N   0  0  0  0  0  0  0  0  0  9
    2.2186  -11.7311   -0.8854 N   0  0  0  0  0  0  0  0  0 10
   -3.1467   -4.1634   -1.5909 C   0  0  0  0  0  0  0  0  0 11
   -4.8573   -2.5057   -1.9730 C   0  0  0  0  0  0  0  0  0 12
   -3.7336   -2.6046    0.1544 C   0  0  0  0  0  0  0  0  0 13
   -1.6365   -4.2811   -1.4118 C   0  0  0  0  0  0  0  0  0 14
   -5.3031   -1.0850   -1.6394 C   0  0  0  0  0  0  0  0  0 15
   -4.2069   -1.1819    0.4384 C   0  0  0  0  0  0  0  0  0 16
   -1.1433   -5.6850   -1.7352 C   0  0  0  0  0  0  0  0  0 17
    0.8065   -6.9237   -1.1696 C   0  0  0  0  0  0  0  0  0 18
    1.5205   -7.0281    0.0189 C   0  0  0  0  0  0  0  0  0 19
    1.8726   -9.3826   -0.4293 C   0  0  0  0  0  0  0  0  0 20
    0.6289   -8.0478   -1.9817 C   0  0  0  0  0  0  0  0  0 21
    1.1534   -9.2898   -1.6322 C   0  0  0  0  0  0  0  0  0 22
    2.0554   -8.2570    0.3927 C   0  0  0  0  0  0  0  0  0 23
    2.3810  -10.6396   -0.1140 C   0  0  0  0  0  0  0  0  0 24
    3.2862  -11.9082    1.9439 C   0  0  0  0  0  0  0  0  0 25
    1.5149  -11.5222   -2.0098 C   0  0  0  0  0  0  0  0  0 26
    2.3940   -5.8500    2.0610 C   0  0  0  0  0  0  0  0  0 27
    2.2680  -12.8519    2.0792 C   0  0  0  0  0  0  0  0  0 28
    4.4727  -12.0544    2.6626 C   0  0  0  0  0  0  0  0  0 29
    2.4362  -13.9420    2.9332 C   0  0  0  0  0  0  0  0  0 30
    4.6408  -13.1443    3.5168 C   0  0  0  0  0  0  0  0  0 31
    2.3669   -4.4727    2.6333 C   0  0  0  0  0  0  0  0  0 32
    3.6227  -14.0881    3.6520 C   0  0  0  0  0  0  0  0  0 33
    2.9699   -4.2077    3.7965 C   0  0  0  0  0  0  0  0  0 34
  1 30  1  0  0  0
  2 33  1  0  0  0
  3 15  1  0  0  0
  3 16  1  0  0  0
  4 17  1  0  0  0
  4 18  1  0  0  0
  5 27  2  0  0  0
  6 11  1  0  0  0
  6 12  1  0  0  0
  6 13  1  0  0  0
  7 19  1  0  0  0
  7 27  1  0  0  0
  8 24  1  0  0  0
  8 25  1  0  0  0
  9 22  1  0  0  0
  9 26  2  0  0  0
 10 24  2  0  0  0
 10 26  1  0  0  0
 11 14  1  0  0  0
 12 15  1  0  0  0
 13 16  1  0  0  0
 14 17  1  0  0  0
 18 19  2  0  0  0
 18 21  1  0  0  0
 19 23  1  0  0  0
 20 22  1  0  0  0
 20 23  2  0  0  0
 20 24  1  0  0  0
 21 22  2  0  0  0
 25 28  2  0  0  0
 25 29  1  0  0  0
 27 32  1  0  0  0
 28 30  1  0  0  0
 29 31  2  0  0  0
 30 33  2  0  0  0
 31 33  1  0  0  0
 32 34  2  0  0  0
M  END
> <PUBCHEM_ATOM_DEF_STEREO_COUNT>
0

> <PUBCHEM_CACTVS_TAUTO_COUNT>
6

> <PUBCHEM_ISOTOPIC_ATOM_COUNT>
0

> <PUBCHEM_CONFORMER_RMSD>
1.2

> <PUBCHEM_SHAPE_MULTIPOLES>
25.43
4.19
2.32
29.96
0.66
-27.82
37.16
-24.75
-3.21
-58.95
0.27
25.18
-14.78

> <PUBCHEM_HEAVY_ATOM_COUNT>
34

> <PUBCHEM_BOND_UDEF_STEREO_COUNT>
0

> <PUBCHEM_EFFECTIVE_ROTOR_COUNT>
11.2

> <PUBCHEM_MMFF94_ENERGY>
108.6314

> <PUBCHEM_BOND_DEF_STEREO_COUNT>
0

> <PUBCHEM_SHAPE_VOLUME>
376

> <PUBCHEM_ATOM_UDEF_STEREO_COUNT>
0

> <PUBCHEM_CONFORMER_ID>
000262FE00000002

> <PUBCHEM_COMPONENT_COUNT>
1

> <PUBCHEM_MMFF94_PARTIAL_CHARGES>
-0.18
-0.19
-0.36
-0.56
-0.57
-0.55
-0.6
-0.81
-0.62
-0.62
0.28
0.27
0
0.28
0.28
0.27
0.27
0.62
-0.14
-0.3
0.41
0.18
0.19
0.08
0.12
0.1
0.31
0
0.47
-0.15
-0.15
-0.15
-0.15
-0.15
0.37
0.4
0
0
0
0
0
0
0
0
0
0
0
0
0
0
0.15
0.15
0.15
0.15
0.15
0.15
0.15
0.15
0.15

> <PUBCHEM_COMPOUND_CID>
156414

$$$$