9874913
  DSViewer          3D                             0

 35 38  0  0  0  0  0  0  0  0999 V2000
    5.0572    0.7929   -1.0700 O   0  0  0  0  0  0  0  0  0  1
   -3.1811   -5.7822    0.8510 O   0  0  0  0  0  0  0  0  0  2
   -4.9341   -3.7394    0.8542 O   0  0  0  0  0  0  0  0  0  3
   -0.3637    1.9799   -0.8020 N   0  0  0  0  0  0  0  0  0  4
   -0.4647    4.0236    0.3587 N   0  0  0  0  0  0  0  0  0  5
   -2.4765    4.6886    1.5064 N   0  0  0  0  0  0  0  0  0  6
   -4.4866   -3.2118   -1.3679 N   0  0  0  0  0  0  0  0  0  7
    5.2706   -2.4088    0.7142 N   0  0  0  0  0  0  0  0  0  8
   -2.4154    2.5966    0.3358 C   0  0  0  0  0  0  0  0  0  9
   -1.1011    2.8965   -0.0114 C   0  0  0  0  0  0  0  0  0 10
    1.0056    1.6799   -0.8746 C   0  0  0  0  0  0  0  0  0 11
   -3.0822    3.5525    1.1194 C   0  0  0  0  0  0  0  0  0 12
   -3.0587    1.4120   -0.0630 C   0  0  0  0  0  0  0  0  0 13
   -4.3751    1.1729    0.3183 C   0  0  0  0  0  0  0  0  0 14
    2.9212    0.9401   -2.1475 C   0  0  0  0  0  0  0  0  0 15
    1.5607    1.2394   -2.0760 C   0  0  0  0  0  0  0  0  0 16
    3.7265    1.0811   -1.0174 C   0  0  0  0  0  0  0  0  0 17
   -4.3992    3.2874    1.4869 C   0  0  0  0  0  0  0  0  0 18
    1.8111    1.8208    0.2555 C   0  0  0  0  0  0  0  0  0 19
   -5.0458    2.1118    1.0941 C   0  0  0  0  0  0  0  0  0 20
    3.1715    1.5214    0.1842 C   0  0  0  0  0  0  0  0  0 21
   -5.0464   -0.0505   -0.0909 C   0  0  0  0  0  0  0  0  0 22
    3.4988    0.4706   -3.4415 C   0  0  0  0  0  0  0  0  0 23
   -1.2009    4.8626    1.1050 C   0  0  0  0  0  0  0  0  0 24
   -4.6808   -0.8465   -1.1219 C   0  0  0  0  0  0  0  0  0 25
   -5.3936   -2.1064   -1.4946 C   0  0  0  0  0  0  0  0  0 26
    5.5333   -0.1988   -0.2301 C   0  0  0  0  0  0  0  0  0 27
    6.7055   -0.0198    0.4962 C   0  0  0  0  0  0  0  0  0 28
    4.8590   -1.4007   -0.0872 C   0  0  0  0  0  0  0  0  0 29
    7.1611   -1.0339    1.3313 C   0  0  0  0  0  0  0  0  0 30
    6.4139   -2.1985    1.4043 C   0  0  0  0  0  0  0  0  0 31
   -4.3296   -3.9435   -0.1951 C   0  0  0  0  0  0  0  0  0 32
   -3.3083   -5.0502   -0.3494 C   0  0  0  0  0  0  0  0  0 33
    6.8728   -3.3078    2.2909 C   0  0  0  0  0  0  0  0  0 34
   -2.2249   -6.8319    0.7343 C   0  0  0  0  0  0  0  0  0 35
  1 17  1  0  0  0
  1 27  1  0  0  0
  2 33  1  0  0  0
  2 35  1  0  0  0
  3 32  2  0  0  0
  4 10  1  0  0  0
  4 11  1  0  0  0
  5 10  2  0  0  0
  5 24  1  0  0  0
  6 12  1  0  0  0
  6 24  2  0  0  0
  7 26  1  0  0  0
  7 32  1  0  0  0
  8 29  1  0  0  0
  8 31  2  0  0  0
  9 10  1  0  0  0
  9 12  2  0  0  0
  9 13  1  0  0  0
 11 16  2  0  0  0
 11 19  1  0  0  0
 12 18  1  0  0  0
 13 14  2  0  0  0
 14 20  1  0  0  0
 14 22  1  0  0  0
 15 16  1  0  0  0
 15 17  2  0  0  0
 15 23  1  0  0  0
 17 21  1  0  0  0
 18 20  2  0  0  0
 19 21  2  0  0  0
 22 25  2  0  0  0
 25 26  1  0  0  0
 27 28  1  0  0  0
 27 29  2  0  0  0
 28 30  2  0  0  0
 30 31  1  0  0  0
 31 34  1  0  0  0
 32 33  1  0  0  0
M  END
> <PUBCHEM_CACTVS_TAUTO_COUNT>
6

> <PUBCHEM_FEATURE_SELFOVERLAP>
61.071

> <PUBCHEM_HEAVY_ATOM_COUNT>
35

> <PUBCHEM_COMPONENT_COUNT>
1

> <PUBCHEM_BOND_UDEF_STEREO_COUNT>
0

> <PUBCHEM_PHARMACOPHORE_FEATURES>
12
1 1 acceptor
1 2 acceptor
1 3 acceptor
1 4 donor
1 7 donor
1 8 acceptor
3 4 5 10 cation
3 5 6 24 cation
6 11 15 16 17 19 21 rings
6 5 6 9 10 12 24 rings
6 8 27 28 29 30 31 rings
6 9 12 13 14 18 20 rings

> <PUBCHEM_MMFF94_PARTIAL_CHARGES>
48
1 -0.17
10 0.41
11 0.1
12 0.31
13 -0.15
14 0.03
15 -0.14
16 -0.15
17 0.08
18 -0.15
19 -0.15
2 -0.56
20 -0.15
21 -0.15
22 -0.18
23 0.14
24 0.47
25 -0.29
26 0.44
27 0.08
28 -0.15
29 0.16
3 -0.57
30 -0.15
31 0.17
32 0.57
33 0.34
34 0.14
35 0.28
36 0.15
37 0.4
38 0.15
39 0.15
4 -0.6
40 0.15
41 0.15
42 0.15
43 0.15
47 0.15
48 0.15
5 -0.62
51 0.37
52 0.15
53 0.15
54 0.15
6 -0.62
7 -0.73
8 -0.62

> <PUBCHEM_COMPOUND_CID>
9874913

> <PUBCHEM_SHAPE_VOLUME>
368.8

> <PUBCHEM_MMFF94_ENERGY>
118.6028

> <PUBCHEM_ISOTOPIC_ATOM_COUNT>
0

> <PUBCHEM_BOND_DEF_STEREO_COUNT>
1

> <PUBCHEM_EFFECTIVE_ROTOR_COUNT>
10

> <PUBCHEM_CONFORMER_DIVERSEORDER>
17
82
203
147
81
204
40
95
178
83
186
43
199
152
62
177
54
189
179
135
75
72
146
74
193
11
142
143
151
35
122
145
51
64
184
49
50
120
65
119
78
123
88
205
116
124
36
7
170
166
197
201
195
58
37
53
169
93
150
185
109
190
171
202
56
140
188
162
27
91
48
187
200
196
172
80
52
71
24
129
44
63
194
90
39
21
59
111
118
133
137
159
115
156
105
94
92
174
20
28
114
110
183
117
30
180
29
106
46
136
66
154
1
125
31
45
33
4
113
41
182
69
57
19
32
155
89
60
85
22
128
121
2
101
86
176
158
6
38
168
97
98
126
18
100
153
131
134
12
16
77
191
160
96
198
102
55
164
192
112
127
73
99
141
61
68
25
70
67
26
108
148
132
23
104
181
10
107
149
84
103
144
173
42
79
8
13
161
47
15
163
138
14
157
5
130
87
34
167
9
165
3
139
175
76

> <PUBCHEM_CONFORMER_RMSD>
1

> <PUBCHEM_COORDINATE_TYPE>
2
5
255

> <PUBCHEM_ATOM_UDEF_STEREO_COUNT>
0

> <PUBCHEM_SHAPE_SELFOVERLAP>
1464.521

> <PUBCHEM_SHAPE_MULTIPOLES>
677.77
18.12
8.86
2.06
10.8
27.39
-8.89
16.41
0.51
-17.33
-2.51
-22.05
56.36
22.09

> <PUBCHEM_CONFORMER_ID>
0096ADE100000011

> <PUBCHEM_SHAPE_FINGERPRINT>
10 15 17458918149315329720
10254770 206 18335144176952923375
10319926 262 17825384343955203780
10571361 74 18342745130389183938
10622 236 18201155460059782839
11478447 58 17908992002310305066
12106331 60 18187082841301673380
12202916 173 18040723580443705389
12218070 45 18269003153431059690
12758862 65 17604151402633660194
14844126 61 18336259128914483889
15250474 111 18412260662169921540
15320294 125 18270675489078091717
15467298 65 18342741840760857106
15728490 83 18269550542870838291
21033648 29 16517376719349488144
260245 28 18272662246445201538
3044373 233 17332515784235434515
3882209 13 17099213843389213999
463206 1 18339074900651223551
4756088 132 17471299452902305727
613672 6 18042114393627000959
6201320 77 17128430053937109443
6695519 79 15647050477884318220
9511036 111 18272102612633267922

> <PUBCHEM_ATOM_DEF_STEREO_COUNT>
0

$$$$