6445562
  DSViewer          3D                             0

 33 35  0  0  0  0  0  0  0  0999 V2000
   -0.7264    5.0967   -6.7374 Cl  0  0  0  0  0  0  0  0  0  1
    0.4628    7.7703   -6.2610 F   0  0  0  0  0  0  0  0  0  2
    0.1143   -0.2402    0.0798 O   0  0  0  0  0  0  0  0  0  3
    2.1149    4.3576   -0.8327 O   0  0  0  0  0  0  0  0  0  4
   -1.9126    5.5592   -1.7699 N   0  0  0  0  0  0  0  0  0  5
    1.5687    2.1263   -0.3242 N   0  0  0  0  0  0  0  0  0  6
   -3.9360    1.9354   -1.1187 N   0  0  0  0  0  0  0  0  0  7
    7.1099    3.7911   -1.1050 N   0  0  0  0  0  0  0  0  0  8
   -5.3592    6.3122   -2.4973 N   0  0  0  0  0  0  0  0  0  9
   -1.8797    3.1920   -1.1364 C   0  0  0  0  0  0  0  0  0 10
   -2.6042    1.9991   -0.9311 C   0  0  0  0  0  0  0  0  0 11
   -2.5862    4.3305   -1.5471 C   0  0  0  0  0  0  0  0  0 12
    0.1870    2.0770   -0.5227 C   0  0  0  0  0  0  0  0  0 13
   -0.4900    3.2227   -0.9308 C   0  0  0  0  0  0  0  0  0 14
   -0.5201    0.8986   -0.3188 C   0  0  0  0  0  0  0  0  0 15
   -1.9018    0.8684   -0.5232 C   0  0  0  0  0  0  0  0  0 16
   -3.9586    4.2679   -1.7413 C   0  0  0  0  0  0  0  0  0 17
   -4.5804    3.0567   -1.5153 C   0  0  0  0  0  0  0  0  0 18
   -1.3123    6.1152   -2.9092 C   0  0  0  0  0  0  0  0  0 19
    2.4240    3.2242   -0.4843 C   0  0  0  0  0  0  0  0  0 20
   -0.3006   -0.8126    1.3180 C   0  0  0  0  0  0  0  0  0 21
    6.2499    3.4992    0.0371 C   0  0  0  0  0  0  0  0  0 22
   -1.3139    5.4154   -4.1203 C   0  0  0  0  0  0  0  0  0 23
   -0.7069    7.3744   -2.8433 C   0  0  0  0  0  0  0  0  0 24
    3.8403    2.8678   -0.1728 C   0  0  0  0  0  0  0  0  0 25
    4.8105    3.7878   -0.2694 C   0  0  0  0  0  0  0  0  0 26
   -4.7314    5.3959   -2.1584 C   0  0  0  0  0  0  0  0  0 27
   -0.7170    5.9688   -5.2531 C   0  0  0  0  0  0  0  0  0 28
   -0.1096    7.9276   -3.9760 C   0  0  0  0  0  0  0  0  0 29
    0.8715   -1.5389    1.9428 C   0  0  0  0  0  0  0  0  0 30
   -0.1148    7.2249   -5.1809 C   0  0  0  0  0  0  0  0  0 31
    8.5141    3.5588   -0.7642 C   0  0  0  0  0  0  0  0  0 32
    6.7255    2.9778   -2.2594 C   0  0  0  0  0  0  0  0  0 33
  1 28  1  0  0  0
  2 31  1  0  0  0
  3 15  1  0  0  0
  3 21  1  0  0  0
  4 20  2  0  0  0
  5 12  1  0  0  0
  5 19  1  0  0  0
  6 13  1  0  0  0
  6 20  1  0  0  0
  7 11  1  0  0  0
  7 18  2  0  0  0
  8 22  1  0  0  0
  8 32  1  0  0  0
  8 33  1  0  0  0
  9 27  3  0  0  0
 10 11  1  0  0  0
 10 12  1  0  0  0
 10 14  2  0  0  0
 11 16  2  0  0  0
 12 17  2  0  0  0
 13 14  1  0  0  0
 13 15  2  0  0  0
 15 16  1  0  0  0
 17 18  1  0  0  0
 17 27  1  0  0  0
 19 23  2  0  0  0
 19 24  1  0  0  0
 20 25  1  0  0  0
 21 30  1  0  0  0
 22 26  1  0  0  0
 23 28  1  0  0  0
 24 29  2  0  0  0
 25 26  2  0  0  0
 28 31  2  0  0  0
 29 31  1  0  0  0
M  END
> <PUBCHEM_HEAVY_ATOM_COUNT>
33

> <PUBCHEM_BOND_UDEF_STEREO_COUNT>
0

> <PUBCHEM_SHAPE_MULTIPOLES>
13.32
8.14
1.57
25.71
-9.89
2
-0.4
-19.75
0.23
-12.77
6.51
21.32
-28.65

> <PUBCHEM_EFFECTIVE_ROTOR_COUNT>
9

> <PUBCHEM_MMFF94_ENERGY>
115.5792

> <PUBCHEM_BOND_DEF_STEREO_COUNT>
1

> <PUBCHEM_SHAPE_VOLUME>
369

> <PUBCHEM_ATOM_UDEF_STEREO_COUNT>
0

> <PUBCHEM_CONFORMER_ID>
006259FA00000001

> <PUBCHEM_COMPONENT_COUNT>
1

> <PUBCHEM_MMFF94_PARTIAL_CHARGES>
-0.18
-0.19
-0.36
-0.57
-0.6
-0.55
-0.62
-0.81
-0.56
0
0.31
0.1
0.12
-0.15
0.08
-0.15
0.07
0.16
0.1
0.62
0.28
0.41
-0.15
-0.15
-0.14
-0.29
0.48
0.18
-0.15
0
0.19
0.27
0.27
0.15
0.15
0.4
0.37
0.15
0
0
0
0
0.15
0.15
0.15
0.15
0.15
0
0
0
0
0
0
0
0
0

> <PUBCHEM_COMPOUND_CID>
6445562

> <PUBCHEM_ATOM_DEF_STEREO_COUNT>
0

> <PUBCHEM_CACTVS_TAUTO_COUNT>
6

> <PUBCHEM_ISOTOPIC_ATOM_COUNT>
0

> <PUBCHEM_CONFORMER_RMSD>
1

$$$$