5330790
  DSViewer          3D                             0

 27 29  0  0  0  0  0  0  0  0999 V2000
    9.5891   -3.0713    0.3640 S   0  0  0  0  0  0  0  0  0  1
    2.6086    0.8836   -4.1083 F   0  0  0  0  0  0  0  0  0  2
    3.4784    3.5438   -0.2708 F   0  0  0  0  0  0  0  0  0  3
    9.8547   -4.4796    0.6222 O   0  0  0  0  0  0  0  0  0  4
   10.0563   -2.4622   -0.8735 O   0  0  0  0  0  0  0  0  0  5
    0.7813    2.0320   -1.5331 O   0  0  0  0  0  0  0  0  0  6
    3.7326   -2.1527    0.8259 N   0  0  0  0  0  0  0  0  0  7
    2.0183    0.3793   -0.6854 N   0  0  0  0  0  0  0  0  0  8
    3.2141   -0.2107   -0.4756 N   0  0  0  0  0  0  0  0  0  9
    1.5573   -1.3180    0.6408 N   0  0  0  0  0  0  0  0  0 10
   10.1691   -2.1504    1.6813 N   0  0  0  0  0  0  0  0  0 11
   -0.2501    0.1106   -0.0348 N   0  0  0  0  0  0  0  0  0 12
    5.1552   -2.3759    0.7145 C   0  0  0  0  0  0  0  0  0 13
    7.8696   -2.8010    0.5006 C   0  0  0  0  0  0  0  0  0 14
    5.7140   -3.4448    1.3813 C   0  0  0  0  0  0  0  0  0 15
    5.9035   -1.5117   -0.0553 C   0  0  0  0  0  0  0  0  0 16
    7.0878   -3.6600    1.2730 C   0  0  0  0  0  0  0  0  0 17
    7.2774   -1.7269   -0.1636 C   0  0  0  0  0  0  0  0  0 18
    2.8777   -1.2264    0.3202 C   0  0  0  0  0  0  0  0  0 19
    3.0154    2.1971   -2.1717 C   0  0  0  0  0  0  0  0  0 20
    1.9009    1.5351   -1.4599 C   0  0  0  0  0  0  0  0  0 21
    1.0405   -0.2940    0.0032 C   0  0  0  0  0  0  0  0  0 22
    3.3198    1.8329   -3.4834 C   0  0  0  0  0  0  0  0  0 23
    3.7624    3.1857   -1.5313 C   0  0  0  0  0  0  0  0  0 24
    4.3710    2.4573   -4.1546 C   0  0  0  0  0  0  0  0  0 25
    4.8136    3.8102   -2.2025 C   0  0  0  0  0  0  0  0  0 26
    5.1180    3.4460   -3.5141 C   0  0  0  0  0  0  0  0  0 27
  1  4  2  0  0  0
  1  5  2  0  0  0
  1 11  1  0  0  0
  1 14  1  0  0  0
  2 23  1  0  0  0
  3 24  1  0  0  0
  6 21  2  0  0  0
  7 13  1  0  0  0
  7 19  1  0  0  0
  8  9  1  0  0  0
  8 21  1  0  0  0
  8 22  1  0  0  0
  9 19  2  0  0  0
 10 19  1  0  0  0
 10 22  2  0  0  0
 12 22  1  0  0  0
 13 15  2  0  0  0
 13 16  1  0  0  0
 14 17  2  0  0  0
 14 18  1  0  0  0
 15 17  1  0  0  0
 16 18  2  0  0  0
 20 21  1  0  0  0
 20 23  2  0  0  0
 20 24  1  0  0  0
 23 25  1  0  0  0
 24 26  2  0  0  0
 25 27  2  0  0  0
 26 27  1  0  0  0
M  END
> <PUBCHEM_CACTVS_TAUTO_COUNT>
5

> <PUBCHEM_ISOTOPIC_ATOM_COUNT>
0

> <PUBCHEM_COMPOUND_CID>
5330790

> <PUBCHEM_HEAVY_ATOM_COUNT>
27

> <PUBCHEM_SHAPE_MULTIPOLES>
13.2
4.63
1.11
13.69
8.12
0.15
0.08
-9.94
-2.16
0.25
0.81
28.76
14.47

> <PUBCHEM_BOND_UDEF_STEREO_COUNT>
0

> <PUBCHEM_EFFECTIVE_ROTOR_COUNT>
5

> <PUBCHEM_MMFF94_ENERGY>
55.8132

> <PUBCHEM_BOND_DEF_STEREO_COUNT>
0

> <PUBCHEM_MMFF94_PARTIAL_CHARGES>
1.45
-0.19
-0.19
-0.65
-0.65
-0.57
-0.58
0.56
-0.71
-0.57
-0.98
-0.88
0.1
-0.01
-0.15
-0.15
-0.15
-0.15
0.6
0.09
0.49
0.27
0.19
0.19
-0.15
-0.15
-0.15
0.15
0.15
0.4
0.15
0.15
0.15
0.15
0.42
0.42
0.15
0.4
0.4

> <PUBCHEM_SHAPE_VOLUME>
281

> <PUBCHEM_ATOM_UDEF_STEREO_COUNT>
0

> <PUBCHEM_CONFORMER_ID>
0051576600000001

> <PUBCHEM_COMPONENT_COUNT>
1

> <PUBCHEM_CONFORMER_RMSD>
0.8

> <PUBCHEM_ATOM_DEF_STEREO_COUNT>
0

$$$$