11712649
  DSViewer          3D                             0

 34 38  0  0  0  0  0  0  0  0999 V2000
   -2.5244    3.9221    2.8741 Cl  0  0  0  0  0  0  0  0  0  1
   -2.2766    1.8570   -1.1377 F   0  0  0  0  0  0  0  0  0  2
   -5.6160   -1.4656   -0.5284 F   0  0  0  0  0  0  0  0  0  3
    8.0107    1.5150   -0.5663 O   0  0  0  0  0  0  0  0  0  4
    6.4125    3.0555   -1.0062 O   0  0  0  0  0  0  0  0  0  5
   -3.2033   -1.7617    0.3262 N   0  0  0  0  0  0  0  0  0  6
    1.0808   -1.2169    0.4618 N   0  0  0  0  0  0  0  0  0  7
    1.0426   -3.5916    0.0715 N   0  0  0  0  0  0  0  0  0  8
    2.9861   -2.3409   -0.3194 N   0  0  0  0  0  0  0  0  0  9
   -0.8127    0.0126    1.2870 C   0  0  0  0  0  0  0  0  0 10
   -2.1557    0.3732    1.0320 C   0  0  0  0  0  0  0  0  0 11
   -0.2171   -1.2646    0.8513 C   0  0  0  0  0  0  0  0  0 12
   -0.9329   -2.4587    0.8713 C   0  0  0  0  0  0  0  0  0 13
   -3.0822   -0.4803    0.2172 C   0  0  0  0  0  0  0  0  0 14
   -2.3737   -2.4946    1.2739 C   0  0  0  0  0  0  0  0  0 15
   -3.9319    0.1845   -0.8149 C   0  0  0  0  0  0  0  0  0 16
   -0.0250    0.9218    2.0249 C   0  0  0  0  0  0  0  0  0 17
   -2.6782    1.5779    1.5380 C   0  0  0  0  0  0  0  0  0 18
   -0.2456   -3.5927    0.4663 C   0  0  0  0  0  0  0  0  0 19
   -0.5462    2.1245    2.5062 C   0  0  0  0  0  0  0  0  0 20
   -1.8747    2.4488    2.2685 C   0  0  0  0  0  0  0  0  0 21
    1.6362   -2.3870    0.0920 C   0  0  0  0  0  0  0  0  0 22
   -3.4732    1.3353   -1.4434 C   0  0  0  0  0  0  0  0  0 23
   -5.1715   -0.3550   -1.1338 C   0  0  0  0  0  0  0  0  0 24
    3.9133   -1.2876   -0.4274 C   0  0  0  0  0  0  0  0  0 25
   -4.2676    1.9568   -2.4069 C   0  0  0  0  0  0  0  0  0 26
   -5.9658    0.2667   -2.0973 C   0  0  0  0  0  0  0  0  0 27
   -5.5138    1.4226   -2.7340 C   0  0  0  0  0  0  0  0  0 28
    3.4735    0.0070   -0.7109 C   0  0  0  0  0  0  0  0  0 29
    5.2766   -1.5343   -0.2526 C   0  0  0  0  0  0  0  0  0 30
    5.7541    0.8015   -0.6444 C   0  0  0  0  0  0  0  0  0 31
    4.3929    1.0504   -0.8194 C   0  0  0  0  0  0  0  0  0 32
    6.1960   -0.4909   -0.3608 C   0  0  0  0  0  0  0  0  0 33
    6.7129    1.8891   -0.7585 C   0  0  0  0  0  0  0  0  0 34
  1 21  1  0  0  0
  2 23  1  0  0  0
  3 24  1  0  0  0
  4 34  1  0  0  0
  5 34  2  0  0  0
  6 14  2  0  0  0
  6 15  1  0  0  0
  7 12  2  0  0  0
  7 22  1  0  0  0
  8 19  1  0  0  0
  8 22  2  0  0  0
  9 22  1  0  0  0
  9 25  1  0  0  0
 10 11  2  0  0  0
 10 12  1  0  0  0
 10 17  1  0  0  0
 11 14  1  0  0  0
 11 18  1  0  0  0
 12 13  1  0  0  0
 13 15  1  0  0  0
 13 19  2  0  0  0
 14 16  1  0  0  0
 16 23  2  0  0  0
 16 24  1  0  0  0
 17 20  2  0  0  0
 18 21  2  0  0  0
 20 21  1  0  0  0
 23 26  1  0  0  0
 24 27  2  0  0  0
 25 29  2  0  0  0
 25 30  1  0  0  0
 26 28  2  0  0  0
 27 28  1  0  0  0
 29 32  1  0  0  0
 30 33  2  0  0  0
 31 32  2  0  0  0
 31 33  1  0  0  0
 31 34  1  0  0  0
M  END
> <PUBCHEM_SHAPE_VOLUME>
344.9

> <PUBCHEM_SHAPE_FINGERPRINT>
10794284 68 17313646227872722689
11135609 187 18411138056329233497
11297750 10 17760930636916354859
11387372 6 5933453743377042471
11505856 67 17678445583838251729
117089 54 5977520876269495917
12788726 201 17388830966081774633
131258 43 16227472659403903281
13690498 29 18116727214245262527
13726171 33 17416699132160450685
13911987 19 18261111859425004391
13947920 24 18343585127017544945
14289585 56 14586450992186467549
14512766 119 17979618063154205556
14556957 393 17968380146983073189
14739800 52 16916521365902026145
14767858 380 18186805781097830246
14904525 67 17127349534723600133
14931854 50 18260545632674832172
15064981 113 17749384915048306614
15289351 153 18259983753265877352
15513586 35 16980922824907267836
15684393 108 6266629728690967800
16989378 47 16662079966194415077
16991981 162 16662599115544149592
16992787 43 18408317783919512361
16994733 274 16988288698415198509
1813 80 16009330763417670155
19438510 23 16844735373260018117
20511986 3 18271813368191983178
21033648 144 18272640269191583414
21033648 29 16630234892449656978
21049683 271 17834666102809533691
21403212 168 12175633866809831587
23559900 14 18117558436208120776
23569914 2 15407556075525962893
2838139 119 17632025259142394775
4173938 306 18337126570816954616
48014 12 17913467070991629012
5372103 7 18059867180777303085
563151 74 16056886853269520320
6058803 2 17681831039921068867
6371009 1 18337116773821972466
6669772 16 17752228100960403584
9981440 41 16702017630060518827
999808 66 8214153953936769988

> <PUBCHEM_CACTVS_TAUTO_COUNT>
4

> <PUBCHEM_CONFORMER_DIVERSEORDER>
1
19
12
3
15
11
8
18
5
4
17
10
16
2
9
14
6
7
13

> <PUBCHEM_COORDINATE_TYPE>
2
5
255

> <PUBCHEM_COMPONENT_COUNT>
1

> <PUBCHEM_BOND_UDEF_STEREO_COUNT>
0

> <PUBCHEM_SHAPE_SELFOVERLAP>
1466.049

> <PUBCHEM_FEATURE_SELFOVERLAP>
60.975

> <PUBCHEM_COMPOUND_CID>
11712649

> <PUBCHEM_MMFF94_ENERGY>
127.7893

> <PUBCHEM_ATOM_DEF_STEREO_COUNT>
0

> <PUBCHEM_HEAVY_ATOM_COUNT>
34

> <PUBCHEM_ISOTOPIC_ATOM_COUNT>
0

> <PUBCHEM_PHARMACOPHORE_FEATURES>
12
1 4 acceptor
1 5 acceptor
1 6 acceptor
1 7 acceptor
1 9 donor
3 4 5 34 anion
4 7 8 9 22 cation
6 10 11 17 18 20 21 rings
6 16 23 24 26 27 28 rings
6 25 29 30 31 32 33 rings
6 7 8 12 13 19 22 rings
7 6 10 11 12 13 14 15 rings

> <PUBCHEM_SHAPE_MULTIPOLES>
655.36
15.89
4.05
2.46
20.41
-10.28
10.76
-16.26
-25.66
-1.41
29.6
-4.78
17.91
-18.97

> <PUBCHEM_ATOM_UDEF_STEREO_COUNT>
0

> <PUBCHEM_CONFORMER_ID>
00B2B88900000001

> <PUBCHEM_BOND_DEF_STEREO_COUNT>
0

> <PUBCHEM_EFFECTIVE_ROTOR_COUNT>
4.2

> <PUBCHEM_MMFF94_PARTIAL_CHARGES>
46
1 -0.18
11 0.09
12 0.31
13 -0.14
14 0.28
15 0.39
16 0.09
17 -0.15
18 -0.15
19 0.16
2 -0.19
20 -0.15
21 0.18
22 0.72
23 0.19
24 0.19
25 0.1
26 -0.15
27 -0.15
28 -0.15
29 -0.15
3 -0.19
30 -0.15
31 0.09
32 -0.15
33 -0.15
34 0.63
37 0.15
38 0.15
39 0.15
4 -0.65
40 0.15
41 0.4
42 0.15
43 0.15
44 0.15
45 0.15
46 0.15
47 0.15
48 0.15
49 0.5
5 -0.57
6 -0.7
7 -0.62
8 -0.62
9 -0.6

> <PUBCHEM_CONFORMER_RMSD>
0.8

$$$$