4521392
  DSViewer          3D                             0

 29 33  0  0  0  0  0  0  0  0999 V2000
   -4.6887    2.3989   -1.5586 O   0  0  0  0  0  0  0  0  0  1
   -5.6441    2.6481    0.6397 O   0  0  0  0  0  0  0  0  0  2
    7.4977    1.8846   -0.5174 O   0  0  0  0  0  0  0  0  0  3
    0.8552   -1.3023   -0.0824 N   0  0  0  0  0  0  0  0  0  4
    0.4811    0.8649    0.2270 N   0  0  0  0  0  0  0  0  0  5
   -2.6151   -1.9815   -0.6169 N   0  0  0  0  0  0  0  0  0  6
    7.8479   -0.2182    0.3277 N   0  0  0  0  0  0  0  0  0  7
   -0.7038    0.1783    0.1962 C   0  0  0  0  0  0  0  0  0  8
   -0.5016   -1.1656    0.0055 C   0  0  0  0  0  0  0  0  0  9
   -1.9832    0.8142    0.3472 C   0  0  0  0  0  0  0  0  0 10
    1.4025   -0.0570    0.0565 C   0  0  0  0  0  0  0  0  0 11
   -2.6625    1.2815   -0.7805 C   0  0  0  0  0  0  0  0  0 12
   -3.8881    1.8846   -0.5856 C   0  0  0  0  0  0  0  0  0 13
    2.8278    0.1622    0.0130 C   0  0  0  0  0  0  0  0  0 14
   -2.5407    0.9598    1.6298 C   0  0  0  0  0  0  0  0  0 15
   -4.4336    2.0271    0.6697 C   0  0  0  0  0  0  0  0  0 16
   -1.4049   -2.2843   -0.0982 C   0  0  0  0  0  0  0  0  0 17
   -3.7837    1.5744    1.7994 C   0  0  0  0  0  0  0  0  0 18
    3.3321    1.3730   -0.4611 C   0  0  0  0  0  0  0  0  0 19
    3.7007   -0.8361    0.4451 C   0  0  0  0  0  0  0  0  0 20
   -5.7997    2.8804   -0.7750 C   0  0  0  0  0  0  0  0  0 21
   -1.0281   -3.5523    0.3099 C   0  0  0  0  0  0  0  0  0 22
    4.7102    1.5855   -0.5030 C   0  0  0  0  0  0  0  0  0 23
    5.0786   -0.6235    0.4033 C   0  0  0  0  0  0  0  0  0 24
    5.5834    0.5874   -0.0709 C   0  0  0  0  0  0  0  0  0 25
   -1.9559   -4.5794    0.1771 C   0  0  0  0  0  0  0  0  0 26
   -3.4906   -3.0053   -0.7305 C   0  0  0  0  0  0  0  0  0 27
   -3.2129   -4.3089   -0.3521 C   0  0  0  0  0  0  0  0  0 28
    7.0199    0.8094   -0.1149 C   0  0  0  0  0  0  0  0  0 29
  1 13  1  0  0  0
  1 21  1  0  0  0
  2 16  1  0  0  0
  2 21  1  0  0  0
  3 29  2  0  0  0
  4  9  1  0  0  0
  4 11  1  0  0  0
  5  8  1  0  0  0
  5 11  2  0  0  0
  6 17  1  0  0  0
  6 27  2  0  0  0
  7 29  1  0  0  0
  8  9  2  0  0  0
  8 10  1  0  0  0
  9 17  1  0  0  0
 10 12  2  0  0  0
 10 15  1  0  0  0
 11 14  1  0  0  0
 12 13  1  0  0  0
 13 16  2  0  0  0
 14 19  2  0  0  0
 14 20  1  0  0  0
 15 18  2  0  0  0
 16 18  1  0  0  0
 17 22  2  0  0  0
 19 23  1  0  0  0
 20 24  2  0  0  0
 22 26  1  0  0  0
 23 25  2  0  0  0
 24 25  1  0  0  0
 25 29  1  0  0  0
 26 28  2  0  0  0
 27 28  1  0  0  0
M  END
> <PUBCHEM_COORDINATE_TYPE>
2
5
255

> <PUBCHEM_SHAPE_SELFOVERLAP>
1270.653

> <PUBCHEM_FEATURE_SELFOVERLAP>
61.047

> <PUBCHEM_COMPONENT_COUNT>
1

> <PUBCHEM_BOND_UDEF_STEREO_COUNT>
0

> <PUBCHEM_COMPOUND_CID>
4521392

> <PUBCHEM_HEAVY_ATOM_COUNT>
29

> <PUBCHEM_MMFF94_ENERGY>
81.823

> <PUBCHEM_ISOTOPIC_ATOM_COUNT>
0

> <PUBCHEM_CONFORMER_DIVERSEORDER>
2
24
20
10
19
13
6
23
22
17
16
9
8
21
12
11
25
1
26
14
3
7
15
5
18
4

> <PUBCHEM_ATOM_DEF_STEREO_COUNT>
0

> <PUBCHEM_EFFECTIVE_ROTOR_COUNT>
4.6

> <PUBCHEM_MMFF94_PARTIAL_CHARGES>
43
1 -0.36
10 0.05
11 0.13
12 -0.15
13 0.08
14 0.05
15 -0.15
16 0.08
17 0.36
18 -0.15
19 -0.15
2 -0.36
20 -0.15
21 0.56
22 -0.15
23 -0.15
24 -0.15
25 0.09
26 -0.15
27 0.16
28 -0.15
29 0.54
3 -0.57
30 0.27
31 0.15
32 0.15
33 0.15
34 0.15
35 0.15
38 0.15
39 0.15
4 0.03
40 0.15
41 0.15
42 0.15
43 0.15
44 0.37
45 0.37
5 -0.57
6 -0.62
7 -0.8
8 0.17
9 -0.2

> <PUBCHEM_CONFORMER_RMSD>
0.8

> <PUBCHEM_CONFORMER_ID>
0044FDB000000002

> <PUBCHEM_ATOM_UDEF_STEREO_COUNT>
0

> <PUBCHEM_PHARMACOPHORE_FEATURES>
12
1 1 acceptor
1 2 acceptor
1 3 acceptor
1 4 donor
1 6 acceptor
1 7 donor
3 4 5 11 cation
5 1 2 13 16 21 rings
5 4 5 8 9 11 rings
6 10 12 13 15 16 18 rings
6 14 19 20 23 24 25 rings
6 6 17 22 26 27 28 rings

> <PUBCHEM_SHAPE_MULTIPOLES>
559.27
16.23
4.73
1.05
20.05
-7.06
1.64
-2.97
-16.19
2.64
1.33
-3.01
47.2
-34.76

> <PUBCHEM_SHAPE_VOLUME>
291.7

> <PUBCHEM_SHAPE_FINGERPRINT>
10050765 1 18266178319339107368
10165383 225 18337390543532908425
10411042 1 17833551198420038055
105312 117 18410007762612454757
10595046 47 18197778796407366884
10835480 77 18186524277117080656
11101153 10 17980194180791508132
11297750 10 17899141507932978443
11545043 162 17895474727159862386
12107183 9 18197788897981141050
12293681 160 17822579429383513673
12597179 24 18187642552354355199
12788726 201 18267877081440767003
12977781 61 17677872647932672206
13052359 8 18409165506973317691
13248334 5 17689716789630766143
13540713 4 17823995428461027624
13540713 5 18200050507152321554
13583140 156 17775278382942050985
13631057 29 18264773147425532962
13911987 19 18339089306093431989
14790565 3 18120651602476104857
15021287 119 17418090988588106796
15131766 46 14833555767424496910
15276724 80 18192707843752074887
15439362 3 18118680165121015118
15927050 60 18337673117325382319
17138139 8 17753368407126339887
19427546 20 18338796702502353910
21033648 144 18336274461710515940
21236236 1 18335983077774228550
21307412 95 17970887077193097694
21756936 100 17386274489561443953
21792965 131 18201168706625920579
22182313 1 17386826384137235118
23559900 14 18121791521493467458
23569917 315 18262519320503816111
23929065 36 18117577144510298266
249057 25 17844528808737264340
255183 313 18264468660398809027
283562 15 18267590117659401435
32027 91 17897987265975514246
350125 39 18337388249835106545
38695281 34 18268432515501275109
4058900 60 18119807165251947425
4073 2 18335136476208209646
4258327 124 18271794688372196596
4409770 3 18337393739057167887
497634 4 18199755747893803902
504843 32 18343021108134465411
5104073 3 18336552617219988256
5171179 24 17606694513246966809
559249 180 18410014334524515734
5969126 39 18043819684353749807
6009941 240 18261110773573108180
6086070 43 17894918408583179320
6327066 14 18341617070213641677
6669772 16 18190174766504275703
7399639 24 18055342798789733941

> <PUBCHEM_CACTVS_TAUTO_COUNT>
9

> <PUBCHEM_BOND_DEF_STEREO_COUNT>
0

$$$$